
No compatibility mode selected!


Circuit: **.subckt tsmc_bandgap_real_tran_gauss

Reset re-loads circuit **.subckt tsmc_bandgap_real_tran_gauss

Circuit: **.subckt tsmc_bandgap_real_tran_gauss

Doing analysis at TEMP = 0.000000 and TNOM = 27.000000

Warning: singular matrix:  check nodes vgate and vgate

Note: Starting dynamic gmin stepping
Trying gmin =   1.0000E-03 Note: One successful gmin step
Trying gmin =   1.0000E-04 Note: One successful gmin step
Trying gmin =   1.0000E-05 Note: One successful gmin step
Trying gmin =   1.0000E-06 Note: One successful gmin step
Trying gmin =   1.0000E-07 Note: One successful gmin step
Trying gmin =   1.0000E-08 Note: One successful gmin step
Trying gmin =   1.0000E-09 Note: One successful gmin step
Trying gmin =   1.0000E-10 Note: One successful gmin step
Trying gmin =   1.0000E-11 Note: One successful gmin step
Trying gmin =   1.0000E-12 Note: One successful gmin step
Trying gmin =   1.0000E-12 Note: One successful gmin step
Warning: singular matrix:  check nodes vgate and vgate

Warning: Dynamic gmin stepping failed
Note: Starting true gmin stepping
Trying gmin =   1.0000E-03 Warning: singular matrix:  check nodes vgate and vgate

Warning: Further gmin increment
Trying gmin =   5.6234E-03 Warning: singular matrix:  check nodes vgate and vgate

Warning: Further gmin increment
Trying gmin =   8.6596E-03 Warning: singular matrix:  check nodes vgate and vgate

Warning: Further gmin increment
Trying gmin =   9.6466E-03 Warning: singular matrix:  check nodes vgate and vgate

Warning: Further gmin increment
Trying gmin =   9.9105E-03 Warning: singular matrix:  check nodes vgate and vgate

Warning: Further gmin increment
Trying gmin =   9.9775E-03 Warning: singular matrix:  check nodes vgate and vgate

Warning: Further gmin increment
Trying gmin =   9.9944E-03 Warning: singular matrix:  check nodes vgate and vgate

Warning: Further gmin increment
Trying gmin =   9.9986E-03 Warning: singular matrix:  check nodes vgate and vgate

Warning: Further gmin increment
Trying gmin =   9.9996E-03 Warning: singular matrix:  check nodes vgate and vgate

Warning: Last gmin step failed
Warning: singular matrix:  check nodes vgate and vgate

Warning: True gmin stepping failed
Note: Starting source stepping
Supplies reduced to   0.0000% Warning: singular matrix:  check nodes vgate and vgate


Trying gmin =   1.0000E-02 Note: One successful gmin step
Trying gmin =   1.0000E-03 Note: One successful gmin step
Trying gmin =   1.0000E-04 Note: One successful gmin step
Trying gmin =   1.0000E-05 Note: One successful gmin step
Trying gmin =   1.0000E-06 Note: One successful gmin step
Trying gmin =   1.0000E-07 Note: One successful gmin step
Trying gmin =   1.0000E-08 Note: One successful gmin step
Trying gmin =   1.0000E-09 Note: One successful gmin step
Trying gmin =   1.0000E-10 Note: One successful gmin step
Trying gmin =   1.0000E-11 Note: One successful gmin step
Trying gmin =   1.0000E-12 Note: One successful gmin step
Note: One successful source step
Supplies reduced to   0.1000% Warning: singular matrix:  check nodes vgate and vgate

Supplies reduced to   0.0000% Warning: singular matrix:  check nodes vgate and vgate

Warning: source stepping failed
Note: Transient op started
Note: Transient op finished successfully

Initial Transient Solution
--------------------------

Node                                   Voltage
----                                   -------
vdd                                          0
vb                                -1.63288e-16
net2                              -1.63288e-16
net1                              -1.63288e-16
net5                               9.03959e-18
va                                 9.03959e-18
net4                              -1.63288e-16
net6                               -9.2608e-18
vbg                                -9.2608e-18
net3                               9.03959e-18
veb                                9.03959e-18
xbgr.xsky130_asc_res_xhigh_po_2p85_1_7.x0.xsky130_fd_pr__res_xhigh_po_2p85.ra    -1.75879e-17
xbgr.sky130_asc_res_xhigh_po_2p85_1_7/rin     -1.7515e-17
xbgr.xsky130_asc_res_xhigh_po_2p85_1_7.x1.xsky130_fd_pr__res_xhigh_po_2p85.ra    -2.29523e-17
xbgr.sky130_asc_res_xhigh_po_2p85_1_6/rin    -2.30016e-17
xbgr.xsky130_asc_res_xhigh_po_2p85_1_8.x0.xsky130_fd_pr__res_xhigh_po_2p85.ra    -9.35242e-18
xbgr.xsky130_asc_res_xhigh_po_2p85_1_8.x1.xsky130_fd_pr__res_xhigh_po_2p85.ra    -1.74228e-17
xbgr.xsky130_asc_res_xhigh_po_2p85_1_9.x0.xsky130_fd_pr__res_xhigh_po_2p85.ra    -2.95824e-17
xbgr.sky130_asc_res_xhigh_po_2p85_1_9/rin    -2.97356e-17
xbgr.xsky130_asc_res_xhigh_po_2p85_1_9.x1.xsky130_fd_pr__res_xhigh_po_2p85.ra    -1.61276e-17
xbgr.sky130_asc_res_xhigh_po_2p85_2_0/rin    -1.59742e-17
xbgr.sky130_asc_cap_mim_m3_1_4/cout     6.31603e-16
xbgr.xsky130_asc_res_xhigh_po_2p85_1_30.x0.xsky130_fd_pr__res_xhigh_po_2p85.ra     9.02873e-18
xbgr.xsky130_asc_res_xhigh_po_2p85_1_30.x1.xsky130_fd_pr__res_xhigh_po_2p85.ra     8.15473e-18
xbgr.sky130_asc_res_xhigh_po_2p85_1_29/rin     8.14567e-18
xbgr.xsky130_asc_res_xhigh_po_2p85_1_20.x0.xsky130_fd_pr__res_xhigh_po_2p85.ra    -1.63272e-16
xbgr.xsky130_asc_res_xhigh_po_2p85_1_20.x1.xsky130_fd_pr__res_xhigh_po_2p85.ra    -1.58433e-16
xbgr.sky130_asc_res_xhigh_po_2p85_1_19/rin    -1.58338e-16
xbgr.sky130_asc_res_xhigh_po_2p85_1_19/rout    -1.44988e-16
xbgr.xsky130_asc_res_xhigh_po_2p85_1_21.x0.xsky130_fd_pr__res_xhigh_po_2p85.ra     1.96518e-18
xbgr.sky130_asc_res_xhigh_po_2p85_1_21/rin     1.97425e-18
xbgr.xsky130_asc_res_xhigh_po_2p85_1_21.x1.xsky130_fd_pr__res_xhigh_po_2p85.ra     1.17547e-18
xbgr.sky130_asc_res_xhigh_po_2p85_2_1/rin     1.16655e-18
xbgr.xsky130_asc_res_xhigh_po_2p85_1_10.x0.xsky130_fd_pr__res_xhigh_po_2p85.ra    -4.34881e-17
xbgr.sky130_asc_res_xhigh_po_2p85_1_10/rin    -4.36433e-17
xbgr.xsky130_asc_res_xhigh_po_2p85_1_10.x1.xsky130_fd_pr__res_xhigh_po_2p85.ra    -2.98902e-17
xbgr.xsky130_asc_res_xhigh_po_2p85_2_0.x0.t1    -7.56585e-20
xbgr.xsky130_asc_res_xhigh_po_2p85_2_0.x0.t2    -9.17967e-18
xbgr.xsky130_asc_res_xhigh_po_2p85_2_0.x1.t1    -1.59362e-17
xbgr.xsky130_asc_res_xhigh_po_2p85_2_0.x1.t2    -9.29333e-18
xbgr.xsky130_asc_res_xhigh_po_2p85_1_22.x0.xsky130_fd_pr__res_xhigh_po_2p85.ra     2.75968e-18
xbgr.sky130_asc_res_xhigh_po_2p85_1_22/rin     2.76858e-18
xbgr.xsky130_asc_res_xhigh_po_2p85_1_22.x1.xsky130_fd_pr__res_xhigh_po_2p85.ra     1.98304e-18
xbgr.xsky130_asc_res_xhigh_po_2p85_1_11.x0.xsky130_fd_pr__res_xhigh_po_2p85.ra    -5.75664e-17
xbgr.sky130_asc_res_xhigh_po_2p85_1_11/rin    -5.77239e-17
xbgr.xsky130_asc_res_xhigh_po_2p85_1_11.x1.xsky130_fd_pr__res_xhigh_po_2p85.ra    -4.37995e-17
xbgr.xsky130_asc_res_xhigh_po_2p85_2_1.x0.t1     2.53145e-21
xbgr.xsky130_asc_res_xhigh_po_2p85_2_1.x0.t2     5.54562e-19
xbgr.xsky130_asc_res_xhigh_po_2p85_2_1.x1.t1     1.16463e-18
xbgr.xsky130_asc_res_xhigh_po_2p85_2_1.x1.t2     5.59009e-19
xbgr.xsky130_asc_res_xhigh_po_2p85_1_12.x0.xsky130_fd_pr__res_xhigh_po_2p85.ra    -7.20193e-17
xbgr.sky130_asc_res_xhigh_po_2p85_1_12/rin    -7.21815e-17
xbgr.xsky130_asc_res_xhigh_po_2p85_1_12.x1.xsky130_fd_pr__res_xhigh_po_2p85.ra    -5.78837e-17
xbgr.xsky130_asc_res_xhigh_po_2p85_1_23.x0.xsky130_fd_pr__res_xhigh_po_2p85.ra     3.56007e-18
xbgr.sky130_asc_res_xhigh_po_2p85_1_23/rin     3.56897e-18
xbgr.xsky130_asc_res_xhigh_po_2p85_1_23.x1.xsky130_fd_pr__res_xhigh_po_2p85.ra     2.77751e-18
xbgr.xsky130_asc_res_xhigh_po_2p85_1_13.x0.xsky130_fd_pr__res_xhigh_po_2p85.ra    -8.70522e-17
xbgr.sky130_asc_res_xhigh_po_2p85_1_13/rin    -8.72216e-17
xbgr.xsky130_asc_res_xhigh_po_2p85_1_13.x1.xsky130_fd_pr__res_xhigh_po_2p85.ra    -7.23471e-17
xbgr.xsky130_asc_res_xhigh_po_2p85_1_24.x0.xsky130_fd_pr__res_xhigh_po_2p85.ra     4.37798e-18
xbgr.sky130_asc_res_xhigh_po_2p85_1_24/rin     4.38707e-18
xbgr.xsky130_asc_res_xhigh_po_2p85_1_24.x1.xsky130_fd_pr__res_xhigh_po_2p85.ra      3.5781e-18
xbgr.xsky130_asc_res_xhigh_po_2p85_1_25.x0.xsky130_fd_pr__res_xhigh_po_2p85.ra     5.21158e-18
xbgr.sky130_asc_res_xhigh_po_2p85_1_25/rin      5.2209e-18
xbgr.xsky130_asc_res_xhigh_po_2p85_1_25.x1.xsky130_fd_pr__res_xhigh_po_2p85.ra     4.39632e-18
xbgr.xsky130_asc_res_xhigh_po_2p85_1_14.x0.xsky130_fd_pr__res_xhigh_po_2p85.ra    -1.03012e-16
xbgr.sky130_asc_res_xhigh_po_2p85_1_14/rin    -1.03192e-16
xbgr.xsky130_asc_res_xhigh_po_2p85_1_14.x1.xsky130_fd_pr__res_xhigh_po_2p85.ra    -8.73967e-17
xbgr.sky130_asc_nfet_01v8_lvt_1_1/gate     2.95423e-16
xbgr.xsky130_asc_res_xhigh_po_2p85_1_15.x0.xsky130_fd_pr__res_xhigh_po_2p85.ra    -1.20087e-16
xbgr.sky130_asc_res_xhigh_po_2p85_1_15/rin    -1.20281e-16
xbgr.xsky130_asc_res_xhigh_po_2p85_1_15.x1.xsky130_fd_pr__res_xhigh_po_2p85.ra     -1.0338e-16
xbgr.xsky130_asc_res_xhigh_po_2p85_1_26.x0.xsky130_fd_pr__res_xhigh_po_2p85.ra     5.99331e-18
xbgr.sky130_asc_res_xhigh_po_2p85_1_26/rin     6.00204e-18
xbgr.xsky130_asc_res_xhigh_po_2p85_1_26.x1.xsky130_fd_pr__res_xhigh_po_2p85.ra     5.22957e-18
xbgr.xsky130_asc_res_xhigh_po_2p85_1_16.x0.xsky130_fd_pr__res_xhigh_po_2p85.ra    -1.38021e-16
xbgr.sky130_asc_res_xhigh_po_2p85_1_18/rin    -1.38222e-16
xbgr.xsky130_asc_res_xhigh_po_2p85_1_16.x1.xsky130_fd_pr__res_xhigh_po_2p85.ra     -1.2048e-16
xbgr.xsky130_asc_res_xhigh_po_2p85_1_27.x0.xsky130_fd_pr__res_xhigh_po_2p85.ra     6.76999e-18
xbgr.sky130_asc_res_xhigh_po_2p85_1_27/rin      6.7786e-18
xbgr.xsky130_asc_res_xhigh_po_2p85_1_27.x1.xsky130_fd_pr__res_xhigh_po_2p85.ra     6.01073e-18
xbgr.xsky130_asc_res_xhigh_po_2p85_1_28.x0.xsky130_fd_pr__res_xhigh_po_2p85.ra     7.46479e-18
xbgr.sky130_asc_res_xhigh_po_2p85_1_28/rin     7.47244e-18
xbgr.xsky130_asc_res_xhigh_po_2p85_1_28.x1.xsky130_fd_pr__res_xhigh_po_2p85.ra      6.7864e-18
xbgr.xsky130_asc_res_xhigh_po_2p85_1_17.x0.xsky130_fd_pr__res_xhigh_po_2p85.ra    -1.55052e-16
xbgr.sky130_asc_res_xhigh_po_2p85_1_17/rin     -1.5492e-16
xbgr.xsky130_asc_res_xhigh_po_2p85_1_17.x1.xsky130_fd_pr__res_xhigh_po_2p85.ra    -1.63234e-16
porst                                        0
xbgr.xsky130_asc_res_xhigh_po_2p85_1_18.x0.xsky130_fd_pr__res_xhigh_po_2p85.ra    -1.38417e-16
xbgr.xsky130_asc_res_xhigh_po_2p85_1_18.x1.xsky130_fd_pr__res_xhigh_po_2p85.ra    -1.54743e-16
xbgr.xsky130_asc_res_xhigh_po_2p85_1_29.x0.xsky130_fd_pr__res_xhigh_po_2p85.ra     8.13807e-18
xbgr.xsky130_asc_res_xhigh_po_2p85_1_29.x1.xsky130_fd_pr__res_xhigh_po_2p85.ra     7.47983e-18
xbgr.sky130_asc_pfet_01v8_lvt_6_1/gate      -1.329e-15
xbgr.sky130_asc_nfet_01v8_lvt_1_1/drain     8.40801e-16
xbgr.xsky130_asc_res_xhigh_po_2p85_1_19.x0.xsky130_fd_pr__res_xhigh_po_2p85.ra    -1.58199e-16
xbgr.xsky130_asc_res_xhigh_po_2p85_1_19.x1.xsky130_fd_pr__res_xhigh_po_2p85.ra    -1.45146e-16
xbgr.xsky130_asc_cap_mim_m3_1_0.x0.a     -2.4729e-23
xbgr.xsky130_asc_cap_mim_m3_1_0.x0.b1    -2.11823e-23
xbgr.xsky130_asc_cap_mim_m3_1_0.x1.a     -2.4729e-23
xbgr.xsky130_asc_cap_mim_m3_1_0.x1.b1    -2.11823e-23
xbgr.xsky130_asc_cap_mim_m3_1_0.x2.a     -2.4729e-23
xbgr.xsky130_asc_cap_mim_m3_1_0.x2.b1    -2.11823e-23
xbgr.xsky130_asc_cap_mim_m3_1_0.x3.a     -2.4729e-23
xbgr.xsky130_asc_cap_mim_m3_1_0.x3.b1    -2.11823e-23
xbgr.xsky130_asc_cap_mim_m3_1_0.x4.a     -2.4729e-23
xbgr.xsky130_asc_cap_mim_m3_1_0.x4.b1    -2.11823e-23
xbgr.xsky130_asc_cap_mim_m3_1_0.x5.a     -2.4729e-23
xbgr.xsky130_asc_cap_mim_m3_1_0.x5.b1    -2.11823e-23
xbgr.xsky130_asc_cap_mim_m3_1_0.x6.a     -2.4729e-23
xbgr.xsky130_asc_cap_mim_m3_1_0.x6.b1    -2.11823e-23
xbgr.xsky130_asc_cap_mim_m3_1_0.x7.a     -2.4729e-23
xbgr.xsky130_asc_cap_mim_m3_1_0.x7.b1    -2.11823e-23
xbgr.xsky130_asc_cap_mim_m3_1_0.x8.a     -2.4729e-23
xbgr.xsky130_asc_cap_mim_m3_1_0.x8.b1    -2.11823e-23
xbgr.xsky130_asc_cap_mim_m3_1_0.x9.a     -2.4729e-23
xbgr.xsky130_asc_cap_mim_m3_1_0.x9.b1    -2.11823e-23
xbgr.xsky130_asc_cap_mim_m3_1_0.x10.a     -2.4729e-23
xbgr.xsky130_asc_cap_mim_m3_1_0.x10.b1    -2.11823e-23
xbgr.xsky130_asc_cap_mim_m3_1_0.x11.a     -2.4729e-23
xbgr.xsky130_asc_cap_mim_m3_1_0.x11.b1    -2.11823e-23
xbgr.xsky130_asc_cap_mim_m3_1_0.x12.a     -2.4729e-23
xbgr.xsky130_asc_cap_mim_m3_1_0.x12.b1    -2.11823e-23
xbgr.xsky130_asc_cap_mim_m3_1_0.x13.a     -2.4729e-23
xbgr.xsky130_asc_cap_mim_m3_1_0.x13.b1    -2.11823e-23
xbgr.xsky130_asc_cap_mim_m3_1_0.x14.a     -2.4729e-23
xbgr.xsky130_asc_cap_mim_m3_1_0.x14.b1    -2.11823e-23
xbgr.xsky130_asc_cap_mim_m3_1_0.x15.a     -2.4729e-23
xbgr.xsky130_asc_cap_mim_m3_1_0.x15.b1    -2.11823e-23
xbgr.xsky130_asc_cap_mim_m3_1_0.x16.a     -2.4729e-23
xbgr.xsky130_asc_cap_mim_m3_1_0.x16.b1    -2.11823e-23
xbgr.xsky130_asc_cap_mim_m3_1_0.x17.a     -2.4729e-23
xbgr.xsky130_asc_cap_mim_m3_1_0.x17.b1    -2.11823e-23
xbgr.xsky130_asc_cap_mim_m3_1_0.x18.a     -2.4729e-23
xbgr.xsky130_asc_cap_mim_m3_1_0.x18.b1    -2.11823e-23
xbgr.xsky130_asc_cap_mim_m3_1_0.x19.a     -2.4729e-23
xbgr.xsky130_asc_cap_mim_m3_1_0.x19.b1    -2.11823e-23
xbgr.xsky130_asc_cap_mim_m3_1_1.x0.a     -2.4729e-23
xbgr.xsky130_asc_cap_mim_m3_1_1.x0.b1    -2.11823e-23
xbgr.xsky130_asc_cap_mim_m3_1_1.x1.a     -2.4729e-23
xbgr.xsky130_asc_cap_mim_m3_1_1.x1.b1    -2.11823e-23
xbgr.xsky130_asc_cap_mim_m3_1_1.x2.a     -2.4729e-23
xbgr.xsky130_asc_cap_mim_m3_1_1.x2.b1    -2.11823e-23
xbgr.xsky130_asc_cap_mim_m3_1_1.x3.a     -2.4729e-23
xbgr.xsky130_asc_cap_mim_m3_1_1.x3.b1    -2.11823e-23
xbgr.xsky130_asc_cap_mim_m3_1_1.x4.a     -2.4729e-23
xbgr.xsky130_asc_cap_mim_m3_1_1.x4.b1    -2.11823e-23
xbgr.xsky130_asc_cap_mim_m3_1_1.x5.a     -2.4729e-23
xbgr.xsky130_asc_cap_mim_m3_1_1.x5.b1    -2.11823e-23
xbgr.xsky130_asc_cap_mim_m3_1_1.x6.a     -2.4729e-23
xbgr.xsky130_asc_cap_mim_m3_1_1.x6.b1    -2.11823e-23
xbgr.xsky130_asc_cap_mim_m3_1_1.x7.a     -2.4729e-23
xbgr.xsky130_asc_cap_mim_m3_1_1.x7.b1    -2.11823e-23
xbgr.xsky130_asc_cap_mim_m3_1_1.x8.a     -2.4729e-23
xbgr.xsky130_asc_cap_mim_m3_1_1.x8.b1    -2.11823e-23
xbgr.xsky130_asc_cap_mim_m3_1_1.x9.a     -2.4729e-23
xbgr.xsky130_asc_cap_mim_m3_1_1.x9.b1    -2.11823e-23
xbgr.xsky130_asc_cap_mim_m3_1_1.x10.a     -2.4729e-23
xbgr.xsky130_asc_cap_mim_m3_1_1.x10.b1    -2.11823e-23
xbgr.xsky130_asc_cap_mim_m3_1_1.x11.a     -2.4729e-23
xbgr.xsky130_asc_cap_mim_m3_1_1.x11.b1    -2.11823e-23
xbgr.xsky130_asc_cap_mim_m3_1_1.x12.a     -2.4729e-23
xbgr.xsky130_asc_cap_mim_m3_1_1.x12.b1    -2.11823e-23
xbgr.xsky130_asc_cap_mim_m3_1_1.x13.a     -2.4729e-23
xbgr.xsky130_asc_cap_mim_m3_1_1.x13.b1    -2.11823e-23
xbgr.xsky130_asc_cap_mim_m3_1_1.x14.a     -2.4729e-23
xbgr.xsky130_asc_cap_mim_m3_1_1.x14.b1    -2.11823e-23
xbgr.xsky130_asc_cap_mim_m3_1_1.x15.a     -2.4729e-23
xbgr.xsky130_asc_cap_mim_m3_1_1.x15.b1    -2.11823e-23
xbgr.xsky130_asc_cap_mim_m3_1_1.x16.a     -2.4729e-23
xbgr.xsky130_asc_cap_mim_m3_1_1.x16.b1    -2.11823e-23
xbgr.xsky130_asc_cap_mim_m3_1_1.x17.a     -2.4729e-23
xbgr.xsky130_asc_cap_mim_m3_1_1.x17.b1    -2.11823e-23
xbgr.xsky130_asc_cap_mim_m3_1_1.x18.a     -2.4729e-23
xbgr.xsky130_asc_cap_mim_m3_1_1.x18.b1    -2.11823e-23
xbgr.xsky130_asc_cap_mim_m3_1_1.x19.a     -2.4729e-23
xbgr.xsky130_asc_cap_mim_m3_1_1.x19.b1    -2.11823e-23
xbgr.xsky130_asc_cap_mim_m3_1_2.x0.a     -2.4729e-23
xbgr.xsky130_asc_cap_mim_m3_1_2.x0.b1    -2.11823e-23
xbgr.xsky130_asc_cap_mim_m3_1_2.x1.a     -2.4729e-23
xbgr.xsky130_asc_cap_mim_m3_1_2.x1.b1    -2.11823e-23
xbgr.xsky130_asc_cap_mim_m3_1_2.x2.a     -2.4729e-23
xbgr.xsky130_asc_cap_mim_m3_1_2.x2.b1    -2.11823e-23
xbgr.xsky130_asc_cap_mim_m3_1_2.x3.a     -2.4729e-23
xbgr.xsky130_asc_cap_mim_m3_1_2.x3.b1    -2.11823e-23
xbgr.xsky130_asc_cap_mim_m3_1_2.x4.a     -2.4729e-23
xbgr.xsky130_asc_cap_mim_m3_1_2.x4.b1    -2.11823e-23
xbgr.xsky130_asc_cap_mim_m3_1_2.x5.a     -2.4729e-23
xbgr.xsky130_asc_cap_mim_m3_1_2.x5.b1    -2.11823e-23
xbgr.xsky130_asc_cap_mim_m3_1_2.x6.a     -2.4729e-23
xbgr.xsky130_asc_cap_mim_m3_1_2.x6.b1    -2.11823e-23
xbgr.xsky130_asc_cap_mim_m3_1_2.x7.a     -2.4729e-23
xbgr.xsky130_asc_cap_mim_m3_1_2.x7.b1    -2.11823e-23
xbgr.xsky130_asc_cap_mim_m3_1_2.x8.a     -2.4729e-23
xbgr.xsky130_asc_cap_mim_m3_1_2.x8.b1    -2.11823e-23
xbgr.xsky130_asc_cap_mim_m3_1_2.x9.a     -2.4729e-23
xbgr.xsky130_asc_cap_mim_m3_1_2.x9.b1    -2.11823e-23
xbgr.xsky130_asc_cap_mim_m3_1_2.x10.a     -2.4729e-23
xbgr.xsky130_asc_cap_mim_m3_1_2.x10.b1    -2.11823e-23
xbgr.xsky130_asc_cap_mim_m3_1_2.x11.a     -2.4729e-23
xbgr.xsky130_asc_cap_mim_m3_1_2.x11.b1    -2.11823e-23
xbgr.xsky130_asc_cap_mim_m3_1_2.x12.a     -2.4729e-23
xbgr.xsky130_asc_cap_mim_m3_1_2.x12.b1    -2.11823e-23
xbgr.xsky130_asc_cap_mim_m3_1_2.x13.a     -2.4729e-23
xbgr.xsky130_asc_cap_mim_m3_1_2.x13.b1    -2.11823e-23
xbgr.xsky130_asc_cap_mim_m3_1_2.x14.a     -2.4729e-23
xbgr.xsky130_asc_cap_mim_m3_1_2.x14.b1    -2.11823e-23
xbgr.xsky130_asc_cap_mim_m3_1_2.x15.a     -2.4729e-23
xbgr.xsky130_asc_cap_mim_m3_1_2.x15.b1    -2.11823e-23
xbgr.xsky130_asc_cap_mim_m3_1_2.x16.a     -2.4729e-23
xbgr.xsky130_asc_cap_mim_m3_1_2.x16.b1    -2.11823e-23
xbgr.xsky130_asc_cap_mim_m3_1_2.x17.a     -2.4729e-23
xbgr.xsky130_asc_cap_mim_m3_1_2.x17.b1    -2.11823e-23
xbgr.xsky130_asc_cap_mim_m3_1_2.x18.a     -2.4729e-23
xbgr.xsky130_asc_cap_mim_m3_1_2.x18.b1    -2.11823e-23
xbgr.xsky130_asc_cap_mim_m3_1_2.x19.a     -2.4729e-23
xbgr.xsky130_asc_cap_mim_m3_1_2.x19.b1    -2.11823e-23
xbgr.xsky130_asc_cap_mim_m3_1_3.x0.a     -2.4729e-23
xbgr.xsky130_asc_cap_mim_m3_1_3.x0.b1    -2.11823e-23
xbgr.xsky130_asc_cap_mim_m3_1_3.x1.a     -2.4729e-23
xbgr.xsky130_asc_cap_mim_m3_1_3.x1.b1    -2.11823e-23
xbgr.xsky130_asc_cap_mim_m3_1_3.x2.a     -2.4729e-23
xbgr.xsky130_asc_cap_mim_m3_1_3.x2.b1    -2.11823e-23
xbgr.xsky130_asc_cap_mim_m3_1_3.x3.a     -2.4729e-23
xbgr.xsky130_asc_cap_mim_m3_1_3.x3.b1    -2.11823e-23
xbgr.xsky130_asc_cap_mim_m3_1_3.x4.a     -2.4729e-23
xbgr.xsky130_asc_cap_mim_m3_1_3.x4.b1    -2.11823e-23
xbgr.xsky130_asc_cap_mim_m3_1_3.x5.a     -2.4729e-23
xbgr.xsky130_asc_cap_mim_m3_1_3.x5.b1    -2.11823e-23
xbgr.xsky130_asc_cap_mim_m3_1_3.x6.a     -2.4729e-23
xbgr.xsky130_asc_cap_mim_m3_1_3.x6.b1    -2.11823e-23
xbgr.xsky130_asc_cap_mim_m3_1_3.x7.a     -2.4729e-23
xbgr.xsky130_asc_cap_mim_m3_1_3.x7.b1    -2.11823e-23
xbgr.xsky130_asc_cap_mim_m3_1_3.x8.a     -2.4729e-23
xbgr.xsky130_asc_cap_mim_m3_1_3.x8.b1    -2.11823e-23
xbgr.xsky130_asc_cap_mim_m3_1_3.x9.a     -2.4729e-23
xbgr.xsky130_asc_cap_mim_m3_1_3.x9.b1    -2.11823e-23
xbgr.xsky130_asc_cap_mim_m3_1_3.x10.a     -2.4729e-23
xbgr.xsky130_asc_cap_mim_m3_1_3.x10.b1    -2.11823e-23
xbgr.xsky130_asc_cap_mim_m3_1_3.x11.a     -2.4729e-23
xbgr.xsky130_asc_cap_mim_m3_1_3.x11.b1    -2.11823e-23
xbgr.xsky130_asc_cap_mim_m3_1_3.x12.a     -2.4729e-23
xbgr.xsky130_asc_cap_mim_m3_1_3.x12.b1    -2.11823e-23
xbgr.xsky130_asc_cap_mim_m3_1_3.x13.a     -2.4729e-23
xbgr.xsky130_asc_cap_mim_m3_1_3.x13.b1    -2.11823e-23
xbgr.xsky130_asc_cap_mim_m3_1_3.x14.a     -2.4729e-23
xbgr.xsky130_asc_cap_mim_m3_1_3.x14.b1    -2.11823e-23
xbgr.xsky130_asc_cap_mim_m3_1_3.x15.a     -2.4729e-23
xbgr.xsky130_asc_cap_mim_m3_1_3.x15.b1    -2.11823e-23
xbgr.xsky130_asc_cap_mim_m3_1_3.x16.a     -2.4729e-23
xbgr.xsky130_asc_cap_mim_m3_1_3.x16.b1    -2.11823e-23
xbgr.xsky130_asc_cap_mim_m3_1_3.x17.a     -2.4729e-23
xbgr.xsky130_asc_cap_mim_m3_1_3.x17.b1    -2.11823e-23
xbgr.xsky130_asc_cap_mim_m3_1_3.x18.a     -2.4729e-23
xbgr.xsky130_asc_cap_mim_m3_1_3.x18.b1    -2.11823e-23
xbgr.xsky130_asc_cap_mim_m3_1_3.x19.a     -2.4729e-23
xbgr.xsky130_asc_cap_mim_m3_1_3.x19.b1    -2.11823e-23
xbgr.xsky130_asc_cap_mim_m3_1_4.x0.a     -2.4729e-23
xbgr.xsky130_asc_cap_mim_m3_1_4.x0.b1    -2.11823e-23
xbgr.xsky130_asc_cap_mim_m3_1_4.x1.a     -2.4729e-23
xbgr.xsky130_asc_cap_mim_m3_1_4.x1.b1    -2.11823e-23
xbgr.xsky130_asc_cap_mim_m3_1_4.x2.a     -2.4729e-23
xbgr.xsky130_asc_cap_mim_m3_1_4.x2.b1    -2.11823e-23
xbgr.xsky130_asc_cap_mim_m3_1_4.x3.a     -2.4729e-23
xbgr.xsky130_asc_cap_mim_m3_1_4.x3.b1    -2.11823e-23
xbgr.xsky130_asc_cap_mim_m3_1_4.x4.a     -2.4729e-23
xbgr.xsky130_asc_cap_mim_m3_1_4.x4.b1    -2.11823e-23
xbgr.xsky130_asc_cap_mim_m3_1_4.x5.a     -2.4729e-23
xbgr.xsky130_asc_cap_mim_m3_1_4.x5.b1    -2.11823e-23
xbgr.xsky130_asc_cap_mim_m3_1_4.x6.a     -2.4729e-23
xbgr.xsky130_asc_cap_mim_m3_1_4.x6.b1    -2.11823e-23
xbgr.xsky130_asc_cap_mim_m3_1_4.x7.a     -2.4729e-23
xbgr.xsky130_asc_cap_mim_m3_1_4.x7.b1    -2.11823e-23
xbgr.xsky130_asc_cap_mim_m3_1_4.x8.a     -2.4729e-23
xbgr.xsky130_asc_cap_mim_m3_1_4.x8.b1    -2.11823e-23
xbgr.xsky130_asc_cap_mim_m3_1_4.x9.a     -2.4729e-23
xbgr.xsky130_asc_cap_mim_m3_1_4.x9.b1    -2.11823e-23
xbgr.xsky130_asc_cap_mim_m3_1_4.x10.a     -2.4729e-23
xbgr.xsky130_asc_cap_mim_m3_1_4.x10.b1    -2.11823e-23
xbgr.xsky130_asc_cap_mim_m3_1_4.x11.a     -2.4729e-23
xbgr.xsky130_asc_cap_mim_m3_1_4.x11.b1    -2.11823e-23
xbgr.xsky130_asc_cap_mim_m3_1_4.x12.a     -2.4729e-23
xbgr.xsky130_asc_cap_mim_m3_1_4.x12.b1    -2.11823e-23
xbgr.xsky130_asc_cap_mim_m3_1_4.x13.a     -2.4729e-23
xbgr.xsky130_asc_cap_mim_m3_1_4.x13.b1    -2.11823e-23
xbgr.xsky130_asc_cap_mim_m3_1_4.x14.a     -2.4729e-23
xbgr.xsky130_asc_cap_mim_m3_1_4.x14.b1    -2.11823e-23
xbgr.xsky130_asc_cap_mim_m3_1_4.x15.a     -2.4729e-23
xbgr.xsky130_asc_cap_mim_m3_1_4.x15.b1    -2.11823e-23
xbgr.xsky130_asc_cap_mim_m3_1_4.x16.a     -2.4729e-23
xbgr.xsky130_asc_cap_mim_m3_1_4.x16.b1    -2.11823e-23
xbgr.xsky130_asc_cap_mim_m3_1_4.x17.a     -2.4729e-23
xbgr.xsky130_asc_cap_mim_m3_1_4.x17.b1    -2.11823e-23
xbgr.xsky130_asc_cap_mim_m3_1_4.x18.a     -2.4729e-23
xbgr.xsky130_asc_cap_mim_m3_1_4.x18.b1    -2.11823e-23
xbgr.xsky130_asc_cap_mim_m3_1_4.x19.a     -2.4729e-23
xbgr.xsky130_asc_cap_mim_m3_1_4.x19.b1    -2.11823e-23
xbgr.xsky130_asc_cap_mim_m3_1_5.x0.a     9.03958e-18
xbgr.xsky130_asc_cap_mim_m3_1_5.x0.b1     9.03958e-18
xbgr.xsky130_asc_cap_mim_m3_1_5.x1.a     9.03958e-18
xbgr.xsky130_asc_cap_mim_m3_1_5.x1.b1     9.03958e-18
xbgr.xsky130_asc_cap_mim_m3_1_5.x2.a     9.03958e-18
xbgr.xsky130_asc_cap_mim_m3_1_5.x2.b1     9.03958e-18
xbgr.xsky130_asc_cap_mim_m3_1_5.x3.a     9.03958e-18
xbgr.xsky130_asc_cap_mim_m3_1_5.x3.b1     9.03958e-18
xbgr.xsky130_asc_cap_mim_m3_1_5.x4.a     9.03958e-18
xbgr.xsky130_asc_cap_mim_m3_1_5.x4.b1     9.03958e-18
xbgr.xsky130_asc_cap_mim_m3_1_5.x5.a     9.03958e-18
xbgr.xsky130_asc_cap_mim_m3_1_5.x5.b1     9.03958e-18
xbgr.xsky130_asc_cap_mim_m3_1_5.x6.a     9.03958e-18
xbgr.xsky130_asc_cap_mim_m3_1_5.x6.b1     9.03958e-18
xbgr.xsky130_asc_cap_mim_m3_1_5.x7.a     9.03958e-18
xbgr.xsky130_asc_cap_mim_m3_1_5.x7.b1     9.03958e-18
xbgr.xsky130_asc_cap_mim_m3_1_5.x8.a     9.03958e-18
xbgr.xsky130_asc_cap_mim_m3_1_5.x8.b1     9.03958e-18
xbgr.xsky130_asc_cap_mim_m3_1_5.x9.a     9.03958e-18
xbgr.xsky130_asc_cap_mim_m3_1_5.x9.b1     9.03958e-18
xbgr.xsky130_asc_cap_mim_m3_1_5.x10.a     9.03958e-18
xbgr.xsky130_asc_cap_mim_m3_1_5.x10.b1     9.03958e-18
xbgr.xsky130_asc_cap_mim_m3_1_5.x11.a     9.03958e-18
xbgr.xsky130_asc_cap_mim_m3_1_5.x11.b1     9.03958e-18
xbgr.xsky130_asc_cap_mim_m3_1_5.x12.a     9.03958e-18
xbgr.xsky130_asc_cap_mim_m3_1_5.x12.b1     9.03958e-18
xbgr.xsky130_asc_cap_mim_m3_1_5.x13.a     9.03958e-18
xbgr.xsky130_asc_cap_mim_m3_1_5.x13.b1     9.03958e-18
xbgr.xsky130_asc_cap_mim_m3_1_5.x14.a     9.03958e-18
xbgr.xsky130_asc_cap_mim_m3_1_5.x14.b1     9.03958e-18
xbgr.xsky130_asc_cap_mim_m3_1_5.x15.a     9.03958e-18
xbgr.xsky130_asc_cap_mim_m3_1_5.x15.b1     9.03958e-18
xbgr.xsky130_asc_cap_mim_m3_1_5.x16.a     9.03958e-18
xbgr.xsky130_asc_cap_mim_m3_1_5.x16.b1     9.03958e-18
xbgr.xsky130_asc_cap_mim_m3_1_5.x17.a     9.03958e-18
xbgr.xsky130_asc_cap_mim_m3_1_5.x17.b1     9.03958e-18
xbgr.xsky130_asc_cap_mim_m3_1_5.x18.a     9.03958e-18
xbgr.xsky130_asc_cap_mim_m3_1_5.x18.b1     9.03958e-18
xbgr.xsky130_asc_cap_mim_m3_1_5.x19.a     9.03958e-18
xbgr.xsky130_asc_cap_mim_m3_1_5.x19.b1     9.03958e-18
xbgr.xsky130_asc_cap_mim_m3_1_6.x0.a     9.03958e-18
xbgr.xsky130_asc_cap_mim_m3_1_6.x0.b1     9.03958e-18
xbgr.xsky130_asc_cap_mim_m3_1_6.x1.a     9.03958e-18
xbgr.xsky130_asc_cap_mim_m3_1_6.x1.b1     9.03958e-18
xbgr.xsky130_asc_cap_mim_m3_1_6.x2.a     9.03958e-18
xbgr.xsky130_asc_cap_mim_m3_1_6.x2.b1     9.03958e-18
xbgr.xsky130_asc_cap_mim_m3_1_6.x3.a     9.03958e-18
xbgr.xsky130_asc_cap_mim_m3_1_6.x3.b1     9.03958e-18
xbgr.xsky130_asc_cap_mim_m3_1_6.x4.a     9.03958e-18
xbgr.xsky130_asc_cap_mim_m3_1_6.x4.b1     9.03958e-18
xbgr.xsky130_asc_cap_mim_m3_1_6.x5.a     9.03958e-18
xbgr.xsky130_asc_cap_mim_m3_1_6.x5.b1     9.03958e-18
xbgr.xsky130_asc_cap_mim_m3_1_6.x6.a     9.03958e-18
xbgr.xsky130_asc_cap_mim_m3_1_6.x6.b1     9.03958e-18
xbgr.xsky130_asc_cap_mim_m3_1_6.x7.a     9.03958e-18
xbgr.xsky130_asc_cap_mim_m3_1_6.x7.b1     9.03958e-18
xbgr.xsky130_asc_cap_mim_m3_1_6.x8.a     9.03958e-18
xbgr.xsky130_asc_cap_mim_m3_1_6.x8.b1     9.03958e-18
xbgr.xsky130_asc_cap_mim_m3_1_6.x9.a     9.03958e-18
xbgr.xsky130_asc_cap_mim_m3_1_6.x9.b1     9.03958e-18
xbgr.xsky130_asc_cap_mim_m3_1_6.x10.a     9.03958e-18
xbgr.xsky130_asc_cap_mim_m3_1_6.x10.b1     9.03958e-18
xbgr.xsky130_asc_cap_mim_m3_1_6.x11.a     9.03958e-18
xbgr.xsky130_asc_cap_mim_m3_1_6.x11.b1     9.03958e-18
xbgr.xsky130_asc_cap_mim_m3_1_6.x12.a     9.03958e-18
xbgr.xsky130_asc_cap_mim_m3_1_6.x12.b1     9.03958e-18
xbgr.xsky130_asc_cap_mim_m3_1_6.x13.a     9.03958e-18
xbgr.xsky130_asc_cap_mim_m3_1_6.x13.b1     9.03958e-18
xbgr.xsky130_asc_cap_mim_m3_1_6.x14.a     9.03958e-18
xbgr.xsky130_asc_cap_mim_m3_1_6.x14.b1     9.03958e-18
xbgr.xsky130_asc_cap_mim_m3_1_6.x15.a     9.03958e-18
xbgr.xsky130_asc_cap_mim_m3_1_6.x15.b1     9.03958e-18
xbgr.xsky130_asc_cap_mim_m3_1_6.x16.a     9.03958e-18
xbgr.xsky130_asc_cap_mim_m3_1_6.x16.b1     9.03958e-18
xbgr.xsky130_asc_cap_mim_m3_1_6.x17.a     9.03958e-18
xbgr.xsky130_asc_cap_mim_m3_1_6.x17.b1     9.03958e-18
xbgr.xsky130_asc_cap_mim_m3_1_6.x18.a     9.03958e-18
xbgr.xsky130_asc_cap_mim_m3_1_6.x18.b1     9.03958e-18
xbgr.xsky130_asc_cap_mim_m3_1_6.x19.a     9.03958e-18
xbgr.xsky130_asc_cap_mim_m3_1_6.x19.b1     9.03958e-18
xbgr.xsky130_asc_res_xhigh_po_2p85_1_0.x0.xsky130_fd_pr__res_xhigh_po_2p85.ra    -4.43868e-18
xbgr.sky130_asc_res_xhigh_po_2p85_1_0/rin     -4.4888e-18
xbgr.xsky130_asc_res_xhigh_po_2p85_1_0.x1.xsky130_fd_pr__res_xhigh_po_2p85.ra    -4.98713e-20
xbgr.xsky130_asc_res_xhigh_po_2p85_1_1.x0.xsky130_fd_pr__res_xhigh_po_2p85.ra    -9.05026e-18
xbgr.sky130_asc_res_xhigh_po_2p85_1_1/rin     -9.1019e-18
xbgr.xsky130_asc_res_xhigh_po_2p85_1_1.x1.xsky130_fd_pr__res_xhigh_po_2p85.ra    -4.53992e-18
xbgr.xsky130_asc_cap_mim_m3_1_7.x0.a     9.03958e-18
xbgr.xsky130_asc_cap_mim_m3_1_7.x0.b1     9.03958e-18
xbgr.xsky130_asc_cap_mim_m3_1_7.x1.a     9.03958e-18
xbgr.xsky130_asc_cap_mim_m3_1_7.x1.b1     9.03958e-18
xbgr.xsky130_asc_cap_mim_m3_1_7.x2.a     9.03958e-18
xbgr.xsky130_asc_cap_mim_m3_1_7.x2.b1     9.03958e-18
xbgr.xsky130_asc_cap_mim_m3_1_7.x3.a     9.03958e-18
xbgr.xsky130_asc_cap_mim_m3_1_7.x3.b1     9.03958e-18
xbgr.xsky130_asc_cap_mim_m3_1_7.x4.a     9.03958e-18
xbgr.xsky130_asc_cap_mim_m3_1_7.x4.b1     9.03958e-18
xbgr.xsky130_asc_cap_mim_m3_1_7.x5.a     9.03958e-18
xbgr.xsky130_asc_cap_mim_m3_1_7.x5.b1     9.03958e-18
xbgr.xsky130_asc_cap_mim_m3_1_7.x6.a     9.03958e-18
xbgr.xsky130_asc_cap_mim_m3_1_7.x6.b1     9.03958e-18
xbgr.xsky130_asc_cap_mim_m3_1_7.x7.a     9.03958e-18
xbgr.xsky130_asc_cap_mim_m3_1_7.x7.b1     9.03958e-18
xbgr.xsky130_asc_cap_mim_m3_1_7.x8.a     9.03958e-18
xbgr.xsky130_asc_cap_mim_m3_1_7.x8.b1     9.03958e-18
xbgr.xsky130_asc_cap_mim_m3_1_7.x9.a     9.03958e-18
xbgr.xsky130_asc_cap_mim_m3_1_7.x9.b1     9.03958e-18
xbgr.xsky130_asc_cap_mim_m3_1_7.x10.a     9.03958e-18
xbgr.xsky130_asc_cap_mim_m3_1_7.x10.b1     9.03958e-18
xbgr.xsky130_asc_cap_mim_m3_1_7.x11.a     9.03958e-18
xbgr.xsky130_asc_cap_mim_m3_1_7.x11.b1     9.03958e-18
xbgr.xsky130_asc_cap_mim_m3_1_7.x12.a     9.03958e-18
xbgr.xsky130_asc_cap_mim_m3_1_7.x12.b1     9.03958e-18
xbgr.xsky130_asc_cap_mim_m3_1_7.x13.a     9.03958e-18
xbgr.xsky130_asc_cap_mim_m3_1_7.x13.b1     9.03958e-18
xbgr.xsky130_asc_cap_mim_m3_1_7.x14.a     9.03958e-18
xbgr.xsky130_asc_cap_mim_m3_1_7.x14.b1     9.03958e-18
xbgr.xsky130_asc_cap_mim_m3_1_7.x15.a     9.03958e-18
xbgr.xsky130_asc_cap_mim_m3_1_7.x15.b1     9.03958e-18
xbgr.xsky130_asc_cap_mim_m3_1_7.x16.a     9.03958e-18
xbgr.xsky130_asc_cap_mim_m3_1_7.x16.b1     9.03958e-18
xbgr.xsky130_asc_cap_mim_m3_1_7.x17.a     9.03958e-18
xbgr.xsky130_asc_cap_mim_m3_1_7.x17.b1     9.03958e-18
xbgr.xsky130_asc_cap_mim_m3_1_7.x18.a     9.03958e-18
xbgr.xsky130_asc_cap_mim_m3_1_7.x18.b1     9.03958e-18
xbgr.xsky130_asc_cap_mim_m3_1_7.x19.a     9.03958e-18
xbgr.xsky130_asc_cap_mim_m3_1_7.x19.b1     9.03958e-18
xbgr.xsky130_asc_cap_mim_m3_1_8.x0.a     9.03958e-18
xbgr.xsky130_asc_cap_mim_m3_1_8.x0.b1     9.03958e-18
xbgr.xsky130_asc_cap_mim_m3_1_8.x1.a     9.03958e-18
xbgr.xsky130_asc_cap_mim_m3_1_8.x1.b1     9.03958e-18
xbgr.xsky130_asc_cap_mim_m3_1_8.x2.a     9.03958e-18
xbgr.xsky130_asc_cap_mim_m3_1_8.x2.b1     9.03958e-18
xbgr.xsky130_asc_cap_mim_m3_1_8.x3.a     9.03958e-18
xbgr.xsky130_asc_cap_mim_m3_1_8.x3.b1     9.03958e-18
xbgr.xsky130_asc_cap_mim_m3_1_8.x4.a     9.03958e-18
xbgr.xsky130_asc_cap_mim_m3_1_8.x4.b1     9.03958e-18
xbgr.xsky130_asc_cap_mim_m3_1_8.x5.a     9.03958e-18
xbgr.xsky130_asc_cap_mim_m3_1_8.x5.b1     9.03958e-18
xbgr.xsky130_asc_cap_mim_m3_1_8.x6.a     9.03958e-18
xbgr.xsky130_asc_cap_mim_m3_1_8.x6.b1     9.03958e-18
xbgr.xsky130_asc_cap_mim_m3_1_8.x7.a     9.03958e-18
xbgr.xsky130_asc_cap_mim_m3_1_8.x7.b1     9.03958e-18
xbgr.xsky130_asc_cap_mim_m3_1_8.x8.a     9.03958e-18
xbgr.xsky130_asc_cap_mim_m3_1_8.x8.b1     9.03958e-18
xbgr.xsky130_asc_cap_mim_m3_1_8.x9.a     9.03958e-18
xbgr.xsky130_asc_cap_mim_m3_1_8.x9.b1     9.03958e-18
xbgr.xsky130_asc_cap_mim_m3_1_8.x10.a     9.03958e-18
xbgr.xsky130_asc_cap_mim_m3_1_8.x10.b1     9.03958e-18
xbgr.xsky130_asc_cap_mim_m3_1_8.x11.a     9.03958e-18
xbgr.xsky130_asc_cap_mim_m3_1_8.x11.b1     9.03958e-18
xbgr.xsky130_asc_cap_mim_m3_1_8.x12.a     9.03958e-18
xbgr.xsky130_asc_cap_mim_m3_1_8.x12.b1     9.03958e-18
xbgr.xsky130_asc_cap_mim_m3_1_8.x13.a     9.03958e-18
xbgr.xsky130_asc_cap_mim_m3_1_8.x13.b1     9.03958e-18
xbgr.xsky130_asc_cap_mim_m3_1_8.x14.a     9.03958e-18
xbgr.xsky130_asc_cap_mim_m3_1_8.x14.b1     9.03958e-18
xbgr.xsky130_asc_cap_mim_m3_1_8.x15.a     9.03958e-18
xbgr.xsky130_asc_cap_mim_m3_1_8.x15.b1     9.03958e-18
xbgr.xsky130_asc_cap_mim_m3_1_8.x16.a     9.03958e-18
xbgr.xsky130_asc_cap_mim_m3_1_8.x16.b1     9.03958e-18
xbgr.xsky130_asc_cap_mim_m3_1_8.x17.a     9.03958e-18
xbgr.xsky130_asc_cap_mim_m3_1_8.x17.b1     9.03958e-18
xbgr.xsky130_asc_cap_mim_m3_1_8.x18.a     9.03958e-18
xbgr.xsky130_asc_cap_mim_m3_1_8.x18.b1     9.03958e-18
xbgr.xsky130_asc_cap_mim_m3_1_8.x19.a     9.03958e-18
xbgr.xsky130_asc_cap_mim_m3_1_8.x19.b1     9.03958e-18
xbgr.xsky130_asc_res_xhigh_po_2p85_1_2.x0.xsky130_fd_pr__res_xhigh_po_2p85.ra    -1.37146e-17
xbgr.sky130_asc_res_xhigh_po_2p85_1_2/rin    -1.37665e-17
xbgr.xsky130_asc_res_xhigh_po_2p85_1_2.x1.xsky130_fd_pr__res_xhigh_po_2p85.ra     -9.1539e-18
xbgr.xsky130_asc_res_xhigh_po_2p85_1_3.x0.xsky130_fd_pr__res_xhigh_po_2p85.ra    -1.81972e-17
xbgr.sky130_asc_res_xhigh_po_2p85_1_3/rin     -1.8246e-17
xbgr.xsky130_asc_res_xhigh_po_2p85_1_3.x1.xsky130_fd_pr__res_xhigh_po_2p85.ra    -1.38174e-17
xbgr.xsky130_asc_cap_mim_m3_1_9.x0.a     9.03958e-18
xbgr.xsky130_asc_cap_mim_m3_1_9.x0.b1     9.03958e-18
xbgr.xsky130_asc_cap_mim_m3_1_9.x1.a     9.03958e-18
xbgr.xsky130_asc_cap_mim_m3_1_9.x1.b1     9.03958e-18
xbgr.xsky130_asc_cap_mim_m3_1_9.x2.a     9.03958e-18
xbgr.xsky130_asc_cap_mim_m3_1_9.x2.b1     9.03958e-18
xbgr.xsky130_asc_cap_mim_m3_1_9.x3.a     9.03958e-18
xbgr.xsky130_asc_cap_mim_m3_1_9.x3.b1     9.03958e-18
xbgr.xsky130_asc_cap_mim_m3_1_9.x4.a     9.03958e-18
xbgr.xsky130_asc_cap_mim_m3_1_9.x4.b1     9.03958e-18
xbgr.xsky130_asc_cap_mim_m3_1_9.x5.a     9.03958e-18
xbgr.xsky130_asc_cap_mim_m3_1_9.x5.b1     9.03958e-18
xbgr.xsky130_asc_cap_mim_m3_1_9.x6.a     9.03958e-18
xbgr.xsky130_asc_cap_mim_m3_1_9.x6.b1     9.03958e-18
xbgr.xsky130_asc_cap_mim_m3_1_9.x7.a     9.03958e-18
xbgr.xsky130_asc_cap_mim_m3_1_9.x7.b1     9.03958e-18
xbgr.xsky130_asc_cap_mim_m3_1_9.x8.a     9.03958e-18
xbgr.xsky130_asc_cap_mim_m3_1_9.x8.b1     9.03958e-18
xbgr.xsky130_asc_cap_mim_m3_1_9.x9.a     9.03958e-18
xbgr.xsky130_asc_cap_mim_m3_1_9.x9.b1     9.03958e-18
xbgr.xsky130_asc_cap_mim_m3_1_9.x10.a     9.03958e-18
xbgr.xsky130_asc_cap_mim_m3_1_9.x10.b1     9.03958e-18
xbgr.xsky130_asc_cap_mim_m3_1_9.x11.a     9.03958e-18
xbgr.xsky130_asc_cap_mim_m3_1_9.x11.b1     9.03958e-18
xbgr.xsky130_asc_cap_mim_m3_1_9.x12.a     9.03958e-18
xbgr.xsky130_asc_cap_mim_m3_1_9.x12.b1     9.03958e-18
xbgr.xsky130_asc_cap_mim_m3_1_9.x13.a     9.03958e-18
xbgr.xsky130_asc_cap_mim_m3_1_9.x13.b1     9.03958e-18
xbgr.xsky130_asc_cap_mim_m3_1_9.x14.a     9.03958e-18
xbgr.xsky130_asc_cap_mim_m3_1_9.x14.b1     9.03958e-18
xbgr.xsky130_asc_cap_mim_m3_1_9.x15.a     9.03958e-18
xbgr.xsky130_asc_cap_mim_m3_1_9.x15.b1     9.03958e-18
xbgr.xsky130_asc_cap_mim_m3_1_9.x16.a     9.03958e-18
xbgr.xsky130_asc_cap_mim_m3_1_9.x16.b1     9.03958e-18
xbgr.xsky130_asc_cap_mim_m3_1_9.x17.a     9.03958e-18
xbgr.xsky130_asc_cap_mim_m3_1_9.x17.b1     9.03958e-18
xbgr.xsky130_asc_cap_mim_m3_1_9.x18.a     9.03958e-18
xbgr.xsky130_asc_cap_mim_m3_1_9.x18.b1     9.03958e-18
xbgr.xsky130_asc_cap_mim_m3_1_9.x19.a     9.03958e-18
xbgr.xsky130_asc_cap_mim_m3_1_9.x19.b1     9.03958e-18
xbgr.xsky130_asc_res_xhigh_po_2p85_1_4.x0.xsky130_fd_pr__res_xhigh_po_2p85.ra    -2.19985e-17
xbgr.sky130_asc_res_xhigh_po_2p85_1_4/rin    -2.20379e-17
xbgr.xsky130_asc_res_xhigh_po_2p85_1_4.x1.xsky130_fd_pr__res_xhigh_po_2p85.ra    -1.82911e-17
xbgr.xsky130_asc_res_xhigh_po_2p85_1_5.x0.xsky130_fd_pr__res_xhigh_po_2p85.ra    -2.41387e-17
xbgr.sky130_asc_res_xhigh_po_2p85_1_5/rin    -2.41558e-17
xbgr.xsky130_asc_res_xhigh_po_2p85_1_5.x1.xsky130_fd_pr__res_xhigh_po_2p85.ra     -2.2068e-17
xbgr.xsky130_asc_res_xhigh_po_2p85_1_6.x0.xsky130_fd_pr__res_xhigh_po_2p85.ra    -2.30252e-17
xbgr.xsky130_asc_res_xhigh_po_2p85_1_6.x1.xsky130_fd_pr__res_xhigh_po_2p85.ra    -2.41536e-17
vgate                                        0
v2#branch                         -6.83449e-21
vq2#branch                                   0
vr1#branch                                   0
vm3#branch                                   0
vm2#branch                                   0
vm1#branch                                   0
vr2#branch                                   0
vr4#branch                                   0
v1#branch                          -6.0406e-20


No. of Data Rows : 3044
binary raw file "./sims/gen3_0/post_temp0_bandgap_real_tran_gauss211.raw"
Reset re-loads circuit **.subckt tsmc_bandgap_real_tran_gauss

Circuit: **.subckt tsmc_bandgap_real_tran_gauss

Doing analysis at TEMP = 0.000000 and TNOM = 27.000000

Warning: singular matrix:  check nodes vgate and vgate

Note: Starting dynamic gmin stepping
Trying gmin =   1.0000E-03 Note: One successful gmin step
Trying gmin =   1.0000E-04 Note: One successful gmin step
Trying gmin =   1.0000E-05 Note: One successful gmin step
Trying gmin =   1.0000E-06 Note: One successful gmin step
Trying gmin =   1.0000E-07 Note: One successful gmin step
Trying gmin =   1.0000E-08 Note: One successful gmin step
Trying gmin =   1.0000E-09 Note: One successful gmin step
Trying gmin =   1.0000E-10 Note: One successful gmin step
Trying gmin =   1.0000E-11 Note: One successful gmin step
Trying gmin =   1.0000E-12 Note: One successful gmin step
Trying gmin =   1.0000E-12 Note: One successful gmin step
Warning: singular matrix:  check nodes vgate and vgate

Warning: Dynamic gmin stepping failed
Note: Starting true gmin stepping
Trying gmin =   1.0000E-03 Warning: singular matrix:  check nodes vgate and vgate

Warning: Further gmin increment
Trying gmin =   5.6234E-03 Warning: singular matrix:  check nodes vgate and vgate

Warning: Further gmin increment
Trying gmin =   8.6596E-03 Warning: singular matrix:  check nodes vgate and vgate

Warning: Further gmin increment
Trying gmin =   9.6466E-03 Warning: singular matrix:  check nodes vgate and vgate

Warning: Further gmin increment
Trying gmin =   9.9105E-03 Warning: singular matrix:  check nodes vgate and vgate

Warning: Further gmin increment
Trying gmin =   9.9775E-03 Warning: singular matrix:  check nodes vgate and vgate

Warning: Further gmin increment
Trying gmin =   9.9944E-03 Warning: singular matrix:  check nodes vgate and vgate

Warning: Further gmin increment
Trying gmin =   9.9986E-03 Warning: singular matrix:  check nodes vgate and vgate

Warning: Further gmin increment
Trying gmin =   9.9996E-03 Warning: singular matrix:  check nodes vgate and vgate

Warning: Last gmin step failed
Warning: singular matrix:  check nodes vgate and vgate

Warning: True gmin stepping failed
Note: Starting source stepping
Supplies reduced to   0.0000% Warning: singular matrix:  check nodes vgate and vgate


Trying gmin =   1.0000E-02 Note: One successful gmin step
Trying gmin =   1.0000E-03 Note: One successful gmin step
Trying gmin =   1.0000E-04 Note: One successful gmin step
Trying gmin =   1.0000E-05 Note: One successful gmin step
Trying gmin =   1.0000E-06 Note: One successful gmin step
Trying gmin =   1.0000E-07 Note: One successful gmin step
Trying gmin =   1.0000E-08 Note: One successful gmin step
Trying gmin =   1.0000E-09 Note: One successful gmin step
Trying gmin =   1.0000E-10 Note: One successful gmin step
Trying gmin =   1.0000E-11 Note: One successful gmin step
Trying gmin =   1.0000E-12 Note: One successful gmin step
Note: One successful source step
Supplies reduced to   0.1000% Warning: singular matrix:  check nodes vgate and vgate

Supplies reduced to   0.0000% Warning: singular matrix:  check nodes vgate and vgate

Warning: source stepping failed
Note: Transient op started
Note: Transient op finished successfully

Initial Transient Solution
--------------------------

Node                                   Voltage
----                                   -------
vdd                                          0
vb                                -1.03719e-16
net2                              -1.03719e-16
net1                              -1.03719e-16
net5                               2.40596e-18
va                                 2.40596e-18
net4                              -1.03719e-16
net6                              -1.39412e-16
vbg                               -1.39412e-16
net3                               2.40596e-18
veb                                2.40596e-18
xbgr.xsky130_asc_res_xhigh_po_2p85_1_7.x0.xsky130_fd_pr__res_xhigh_po_2p85.ra    -1.06961e-16
xbgr.sky130_asc_res_xhigh_po_2p85_1_7/rin    -1.07174e-16
xbgr.xsky130_asc_res_xhigh_po_2p85_1_7.x1.xsky130_fd_pr__res_xhigh_po_2p85.ra    -9.02846e-17
xbgr.sky130_asc_res_xhigh_po_2p85_1_6/rin    -9.01174e-17
xbgr.xsky130_asc_res_xhigh_po_2p85_1_8.x0.xsky130_fd_pr__res_xhigh_po_2p85.ra    -1.38983e-16
xbgr.xsky130_asc_res_xhigh_po_2p85_1_8.x1.xsky130_fd_pr__res_xhigh_po_2p85.ra    -1.07462e-16
xbgr.xsky130_asc_res_xhigh_po_2p85_1_9.x0.xsky130_fd_pr__res_xhigh_po_2p85.ra     -2.1369e-17
xbgr.sky130_asc_res_xhigh_po_2p85_1_9/rin    -2.14644e-17
xbgr.xsky130_asc_res_xhigh_po_2p85_1_9.x1.xsky130_fd_pr__res_xhigh_po_2p85.ra    -1.29624e-17
xbgr.sky130_asc_res_xhigh_po_2p85_2_0/rin    -1.28662e-17
xbgr.sky130_asc_cap_mim_m3_1_4/cout     1.06534e-15
xbgr.xsky130_asc_res_xhigh_po_2p85_1_30.x0.xsky130_fd_pr__res_xhigh_po_2p85.ra     2.40204e-18
xbgr.xsky130_asc_res_xhigh_po_2p85_1_30.x1.xsky130_fd_pr__res_xhigh_po_2p85.ra     2.14132e-18
xbgr.sky130_asc_res_xhigh_po_2p85_1_29/rin      2.1393e-18
xbgr.xsky130_asc_res_xhigh_po_2p85_1_20.x0.xsky130_fd_pr__res_xhigh_po_2p85.ra    -1.03809e-16
xbgr.xsky130_asc_res_xhigh_po_2p85_1_20.x1.xsky130_fd_pr__res_xhigh_po_2p85.ra    -1.09465e-16
xbgr.sky130_asc_res_xhigh_po_2p85_1_19/rin    -1.09504e-16
xbgr.sky130_asc_res_xhigh_po_2p85_1_19/rout    -1.10329e-16
xbgr.xsky130_asc_res_xhigh_po_2p85_1_21.x0.xsky130_fd_pr__res_xhigh_po_2p85.ra     4.49072e-19
xbgr.sky130_asc_res_xhigh_po_2p85_1_21/rin     4.51123e-19
xbgr.xsky130_asc_res_xhigh_po_2p85_1_21.x1.xsky130_fd_pr__res_xhigh_po_2p85.ra     2.68553e-19
xbgr.sky130_asc_res_xhigh_po_2p85_2_1/rin     2.66491e-19
xbgr.xsky130_asc_res_xhigh_po_2p85_1_10.x0.xsky130_fd_pr__res_xhigh_po_2p85.ra    -2.98901e-17
xbgr.sky130_asc_res_xhigh_po_2p85_1_10/rin    -2.99847e-17
xbgr.xsky130_asc_res_xhigh_po_2p85_1_10.x1.xsky130_fd_pr__res_xhigh_po_2p85.ra    -2.15596e-17
xbgr.xsky130_asc_res_xhigh_po_2p85_2_0.x0.t1      -3.224e-20
xbgr.xsky130_asc_res_xhigh_po_2p85_2_0.x0.t2    -3.90111e-18
xbgr.xsky130_asc_res_xhigh_po_2p85_2_0.x1.t1    -1.28338e-17
xbgr.xsky130_asc_res_xhigh_po_2p85_2_0.x1.t2    -3.96575e-18
xbgr.xsky130_asc_res_xhigh_po_2p85_1_22.x0.xsky130_fd_pr__res_xhigh_po_2p85.ra      6.4492e-19
xbgr.sky130_asc_res_xhigh_po_2p85_1_22/rin     6.47063e-19
xbgr.xsky130_asc_res_xhigh_po_2p85_1_22.x1.xsky130_fd_pr__res_xhigh_po_2p85.ra     4.53345e-19
xbgr.xsky130_asc_res_xhigh_po_2p85_1_11.x0.xsky130_fd_pr__res_xhigh_po_2p85.ra    -3.83364e-17
xbgr.sky130_asc_res_xhigh_po_2p85_1_11/rin    -3.84304e-17
xbgr.xsky130_asc_res_xhigh_po_2p85_1_11.x1.xsky130_fd_pr__res_xhigh_po_2p85.ra    -3.00789e-17
xbgr.xsky130_asc_res_xhigh_po_2p85_2_1.x0.t1     8.02501e-22
xbgr.xsky130_asc_res_xhigh_po_2p85_2_1.x0.t2     1.53748e-19
xbgr.xsky130_asc_res_xhigh_po_2p85_2_1.x1.t1     2.65761e-19
xbgr.xsky130_asc_res_xhigh_po_2p85_2_1.x1.t2      1.5528e-19
xbgr.xsky130_asc_res_xhigh_po_2p85_1_12.x0.xsky130_fd_pr__res_xhigh_po_2p85.ra    -4.68084e-17
xbgr.sky130_asc_res_xhigh_po_2p85_1_12/rin    -4.69031e-17
xbgr.xsky130_asc_res_xhigh_po_2p85_1_12.x1.xsky130_fd_pr__res_xhigh_po_2p85.ra    -3.85244e-17
xbgr.xsky130_asc_res_xhigh_po_2p85_1_23.x0.xsky130_fd_pr__res_xhigh_po_2p85.ra     8.17972e-19
xbgr.sky130_asc_res_xhigh_po_2p85_1_23/rin       8.198e-19
xbgr.xsky130_asc_res_xhigh_po_2p85_1_23.x1.xsky130_fd_pr__res_xhigh_po_2p85.ra     6.49082e-19
xbgr.xsky130_asc_res_xhigh_po_2p85_1_13.x0.xsky130_fd_pr__res_xhigh_po_2p85.ra    -5.55252e-17
xbgr.sky130_asc_res_xhigh_po_2p85_1_13/rin    -5.56233e-17
xbgr.xsky130_asc_res_xhigh_po_2p85_1_13.x1.xsky130_fd_pr__res_xhigh_po_2p85.ra    -4.69992e-17
xbgr.xsky130_asc_res_xhigh_po_2p85_1_24.x0.xsky130_fd_pr__res_xhigh_po_2p85.ra     1.02924e-18
xbgr.sky130_asc_res_xhigh_po_2p85_1_24/rin     1.03148e-18
xbgr.xsky130_asc_res_xhigh_po_2p85_1_24.x1.xsky130_fd_pr__res_xhigh_po_2p85.ra     8.22278e-19
xbgr.xsky130_asc_res_xhigh_po_2p85_1_25.x0.xsky130_fd_pr__res_xhigh_po_2p85.ra     1.27599e-18
xbgr.sky130_asc_res_xhigh_po_2p85_1_25/rin     1.27866e-18
xbgr.xsky130_asc_res_xhigh_po_2p85_1_25.x1.xsky130_fd_pr__res_xhigh_po_2p85.ra     1.03432e-18
xbgr.xsky130_asc_res_xhigh_po_2p85_1_14.x0.xsky130_fd_pr__res_xhigh_po_2p85.ra    -6.48519e-17
xbgr.sky130_asc_res_xhigh_po_2p85_1_14/rin    -6.49579e-17
xbgr.xsky130_asc_res_xhigh_po_2p85_1_14.x1.xsky130_fd_pr__res_xhigh_po_2p85.ra    -5.57252e-17
xbgr.sky130_asc_nfet_01v8_lvt_1_1/gate    -1.38292e-15
xbgr.xsky130_asc_res_xhigh_po_2p85_1_15.x0.xsky130_fd_pr__res_xhigh_po_2p85.ra    -7.51165e-17
xbgr.sky130_asc_res_xhigh_po_2p85_1_15/rin    -7.52338e-17
xbgr.xsky130_asc_res_xhigh_po_2p85_1_15.x1.xsky130_fd_pr__res_xhigh_po_2p85.ra    -6.50695e-17
xbgr.xsky130_asc_res_xhigh_po_2p85_1_26.x0.xsky130_fd_pr__res_xhigh_po_2p85.ra     1.52009e-18
xbgr.sky130_asc_res_xhigh_po_2p85_1_26/rin     1.52276e-18
xbgr.xsky130_asc_res_xhigh_po_2p85_1_26.x1.xsky130_fd_pr__res_xhigh_po_2p85.ra     1.28142e-18
xbgr.xsky130_asc_res_xhigh_po_2p85_1_16.x0.xsky130_fd_pr__res_xhigh_po_2p85.ra    -8.63947e-17
xbgr.sky130_asc_res_xhigh_po_2p85_1_18/rin    -8.65224e-17
xbgr.xsky130_asc_res_xhigh_po_2p85_1_16.x1.xsky130_fd_pr__res_xhigh_po_2p85.ra    -7.53576e-17
xbgr.xsky130_asc_res_xhigh_po_2p85_1_27.x0.xsky130_fd_pr__res_xhigh_po_2p85.ra     1.75183e-18
xbgr.sky130_asc_res_xhigh_po_2p85_1_27/rin      1.7544e-18
xbgr.xsky130_asc_res_xhigh_po_2p85_1_27.x1.xsky130_fd_pr__res_xhigh_po_2p85.ra     1.52535e-18
xbgr.xsky130_asc_res_xhigh_po_2p85_1_28.x0.xsky130_fd_pr__res_xhigh_po_2p85.ra     1.92917e-18
xbgr.sky130_asc_res_xhigh_po_2p85_1_28/rin     1.93115e-18
xbgr.xsky130_asc_res_xhigh_po_2p85_1_28.x1.xsky130_fd_pr__res_xhigh_po_2p85.ra     1.75636e-18
xbgr.xsky130_asc_res_xhigh_po_2p85_1_17.x0.xsky130_fd_pr__res_xhigh_po_2p85.ra    -9.77169e-17
xbgr.sky130_asc_res_xhigh_po_2p85_1_17/rin    -9.76235e-17
xbgr.xsky130_asc_res_xhigh_po_2p85_1_17.x1.xsky130_fd_pr__res_xhigh_po_2p85.ra    -1.03677e-16
porst                                        0
xbgr.xsky130_asc_res_xhigh_po_2p85_1_18.x0.xsky130_fd_pr__res_xhigh_po_2p85.ra    -8.66506e-17
xbgr.xsky130_asc_res_xhigh_po_2p85_1_18.x1.xsky130_fd_pr__res_xhigh_po_2p85.ra    -9.75044e-17
xbgr.xsky130_asc_res_xhigh_po_2p85_1_29.x0.xsky130_fd_pr__res_xhigh_po_2p85.ra     2.13676e-18
xbgr.xsky130_asc_res_xhigh_po_2p85_1_29.x1.xsky130_fd_pr__res_xhigh_po_2p85.ra     1.93325e-18
xbgr.sky130_asc_pfet_01v8_lvt_6_1/gate     3.27387e-15
xbgr.sky130_asc_nfet_01v8_lvt_1_1/drain    -3.76204e-15
xbgr.xsky130_asc_res_xhigh_po_2p85_1_19.x0.xsky130_fd_pr__res_xhigh_po_2p85.ra    -1.09517e-16
xbgr.xsky130_asc_res_xhigh_po_2p85_1_19.x1.xsky130_fd_pr__res_xhigh_po_2p85.ra    -1.10324e-16
xbgr.xsky130_asc_cap_mim_m3_1_0.x0.a    -1.14707e-22
xbgr.xsky130_asc_cap_mim_m3_1_0.x0.b1     -9.8255e-23
xbgr.xsky130_asc_cap_mim_m3_1_0.x1.a    -1.14707e-22
xbgr.xsky130_asc_cap_mim_m3_1_0.x1.b1     -9.8255e-23
xbgr.xsky130_asc_cap_mim_m3_1_0.x2.a    -1.14707e-22
xbgr.xsky130_asc_cap_mim_m3_1_0.x2.b1     -9.8255e-23
xbgr.xsky130_asc_cap_mim_m3_1_0.x3.a    -1.14707e-22
xbgr.xsky130_asc_cap_mim_m3_1_0.x3.b1     -9.8255e-23
xbgr.xsky130_asc_cap_mim_m3_1_0.x4.a    -1.14707e-22
xbgr.xsky130_asc_cap_mim_m3_1_0.x4.b1     -9.8255e-23
xbgr.xsky130_asc_cap_mim_m3_1_0.x5.a    -1.14707e-22
xbgr.xsky130_asc_cap_mim_m3_1_0.x5.b1     -9.8255e-23
xbgr.xsky130_asc_cap_mim_m3_1_0.x6.a    -1.14707e-22
xbgr.xsky130_asc_cap_mim_m3_1_0.x6.b1     -9.8255e-23
xbgr.xsky130_asc_cap_mim_m3_1_0.x7.a    -1.14707e-22
xbgr.xsky130_asc_cap_mim_m3_1_0.x7.b1     -9.8255e-23
xbgr.xsky130_asc_cap_mim_m3_1_0.x8.a    -1.14707e-22
xbgr.xsky130_asc_cap_mim_m3_1_0.x8.b1     -9.8255e-23
xbgr.xsky130_asc_cap_mim_m3_1_0.x9.a    -1.14707e-22
xbgr.xsky130_asc_cap_mim_m3_1_0.x9.b1     -9.8255e-23
xbgr.xsky130_asc_cap_mim_m3_1_0.x10.a    -1.14707e-22
xbgr.xsky130_asc_cap_mim_m3_1_0.x10.b1     -9.8255e-23
xbgr.xsky130_asc_cap_mim_m3_1_0.x11.a    -1.14707e-22
xbgr.xsky130_asc_cap_mim_m3_1_0.x11.b1     -9.8255e-23
xbgr.xsky130_asc_cap_mim_m3_1_0.x12.a    -1.14707e-22
xbgr.xsky130_asc_cap_mim_m3_1_0.x12.b1     -9.8255e-23
xbgr.xsky130_asc_cap_mim_m3_1_0.x13.a    -1.14707e-22
xbgr.xsky130_asc_cap_mim_m3_1_0.x13.b1     -9.8255e-23
xbgr.xsky130_asc_cap_mim_m3_1_0.x14.a    -1.14707e-22
xbgr.xsky130_asc_cap_mim_m3_1_0.x14.b1     -9.8255e-23
xbgr.xsky130_asc_cap_mim_m3_1_0.x15.a    -1.14707e-22
xbgr.xsky130_asc_cap_mim_m3_1_0.x15.b1     -9.8255e-23
xbgr.xsky130_asc_cap_mim_m3_1_0.x16.a    -1.14707e-22
xbgr.xsky130_asc_cap_mim_m3_1_0.x16.b1     -9.8255e-23
xbgr.xsky130_asc_cap_mim_m3_1_0.x17.a    -1.14707e-22
xbgr.xsky130_asc_cap_mim_m3_1_0.x17.b1     -9.8255e-23
xbgr.xsky130_asc_cap_mim_m3_1_0.x18.a    -1.14707e-22
xbgr.xsky130_asc_cap_mim_m3_1_0.x18.b1     -9.8255e-23
xbgr.xsky130_asc_cap_mim_m3_1_0.x19.a    -1.14707e-22
xbgr.xsky130_asc_cap_mim_m3_1_0.x19.b1     -9.8255e-23
xbgr.xsky130_asc_cap_mim_m3_1_1.x0.a    -1.14707e-22
xbgr.xsky130_asc_cap_mim_m3_1_1.x0.b1     -9.8255e-23
xbgr.xsky130_asc_cap_mim_m3_1_1.x1.a    -1.14707e-22
xbgr.xsky130_asc_cap_mim_m3_1_1.x1.b1     -9.8255e-23
xbgr.xsky130_asc_cap_mim_m3_1_1.x2.a    -1.14707e-22
xbgr.xsky130_asc_cap_mim_m3_1_1.x2.b1     -9.8255e-23
xbgr.xsky130_asc_cap_mim_m3_1_1.x3.a    -1.14707e-22
xbgr.xsky130_asc_cap_mim_m3_1_1.x3.b1     -9.8255e-23
xbgr.xsky130_asc_cap_mim_m3_1_1.x4.a    -1.14707e-22
xbgr.xsky130_asc_cap_mim_m3_1_1.x4.b1     -9.8255e-23
xbgr.xsky130_asc_cap_mim_m3_1_1.x5.a    -1.14707e-22
xbgr.xsky130_asc_cap_mim_m3_1_1.x5.b1     -9.8255e-23
xbgr.xsky130_asc_cap_mim_m3_1_1.x6.a    -1.14707e-22
xbgr.xsky130_asc_cap_mim_m3_1_1.x6.b1     -9.8255e-23
xbgr.xsky130_asc_cap_mim_m3_1_1.x7.a    -1.14707e-22
xbgr.xsky130_asc_cap_mim_m3_1_1.x7.b1     -9.8255e-23
xbgr.xsky130_asc_cap_mim_m3_1_1.x8.a    -1.14707e-22
xbgr.xsky130_asc_cap_mim_m3_1_1.x8.b1     -9.8255e-23
xbgr.xsky130_asc_cap_mim_m3_1_1.x9.a    -1.14707e-22
xbgr.xsky130_asc_cap_mim_m3_1_1.x9.b1     -9.8255e-23
xbgr.xsky130_asc_cap_mim_m3_1_1.x10.a    -1.14707e-22
xbgr.xsky130_asc_cap_mim_m3_1_1.x10.b1     -9.8255e-23
xbgr.xsky130_asc_cap_mim_m3_1_1.x11.a    -1.14707e-22
xbgr.xsky130_asc_cap_mim_m3_1_1.x11.b1     -9.8255e-23
xbgr.xsky130_asc_cap_mim_m3_1_1.x12.a    -1.14707e-22
xbgr.xsky130_asc_cap_mim_m3_1_1.x12.b1     -9.8255e-23
xbgr.xsky130_asc_cap_mim_m3_1_1.x13.a    -1.14707e-22
xbgr.xsky130_asc_cap_mim_m3_1_1.x13.b1     -9.8255e-23
xbgr.xsky130_asc_cap_mim_m3_1_1.x14.a    -1.14707e-22
xbgr.xsky130_asc_cap_mim_m3_1_1.x14.b1     -9.8255e-23
xbgr.xsky130_asc_cap_mim_m3_1_1.x15.a    -1.14707e-22
xbgr.xsky130_asc_cap_mim_m3_1_1.x15.b1     -9.8255e-23
xbgr.xsky130_asc_cap_mim_m3_1_1.x16.a    -1.14707e-22
xbgr.xsky130_asc_cap_mim_m3_1_1.x16.b1     -9.8255e-23
xbgr.xsky130_asc_cap_mim_m3_1_1.x17.a    -1.14707e-22
xbgr.xsky130_asc_cap_mim_m3_1_1.x17.b1     -9.8255e-23
xbgr.xsky130_asc_cap_mim_m3_1_1.x18.a    -1.14707e-22
xbgr.xsky130_asc_cap_mim_m3_1_1.x18.b1     -9.8255e-23
xbgr.xsky130_asc_cap_mim_m3_1_1.x19.a    -1.14707e-22
xbgr.xsky130_asc_cap_mim_m3_1_1.x19.b1     -9.8255e-23
xbgr.xsky130_asc_cap_mim_m3_1_2.x0.a    -1.14707e-22
xbgr.xsky130_asc_cap_mim_m3_1_2.x0.b1     -9.8255e-23
xbgr.xsky130_asc_cap_mim_m3_1_2.x1.a    -1.14707e-22
xbgr.xsky130_asc_cap_mim_m3_1_2.x1.b1     -9.8255e-23
xbgr.xsky130_asc_cap_mim_m3_1_2.x2.a    -1.14707e-22
xbgr.xsky130_asc_cap_mim_m3_1_2.x2.b1     -9.8255e-23
xbgr.xsky130_asc_cap_mim_m3_1_2.x3.a    -1.14707e-22
xbgr.xsky130_asc_cap_mim_m3_1_2.x3.b1     -9.8255e-23
xbgr.xsky130_asc_cap_mim_m3_1_2.x4.a    -1.14707e-22
xbgr.xsky130_asc_cap_mim_m3_1_2.x4.b1     -9.8255e-23
xbgr.xsky130_asc_cap_mim_m3_1_2.x5.a    -1.14707e-22
xbgr.xsky130_asc_cap_mim_m3_1_2.x5.b1     -9.8255e-23
xbgr.xsky130_asc_cap_mim_m3_1_2.x6.a    -1.14707e-22
xbgr.xsky130_asc_cap_mim_m3_1_2.x6.b1     -9.8255e-23
xbgr.xsky130_asc_cap_mim_m3_1_2.x7.a    -1.14707e-22
xbgr.xsky130_asc_cap_mim_m3_1_2.x7.b1     -9.8255e-23
xbgr.xsky130_asc_cap_mim_m3_1_2.x8.a    -1.14707e-22
xbgr.xsky130_asc_cap_mim_m3_1_2.x8.b1     -9.8255e-23
xbgr.xsky130_asc_cap_mim_m3_1_2.x9.a    -1.14707e-22
xbgr.xsky130_asc_cap_mim_m3_1_2.x9.b1     -9.8255e-23
xbgr.xsky130_asc_cap_mim_m3_1_2.x10.a    -1.14707e-22
xbgr.xsky130_asc_cap_mim_m3_1_2.x10.b1     -9.8255e-23
xbgr.xsky130_asc_cap_mim_m3_1_2.x11.a    -1.14707e-22
xbgr.xsky130_asc_cap_mim_m3_1_2.x11.b1     -9.8255e-23
xbgr.xsky130_asc_cap_mim_m3_1_2.x12.a    -1.14707e-22
xbgr.xsky130_asc_cap_mim_m3_1_2.x12.b1     -9.8255e-23
xbgr.xsky130_asc_cap_mim_m3_1_2.x13.a    -1.14707e-22
xbgr.xsky130_asc_cap_mim_m3_1_2.x13.b1     -9.8255e-23
xbgr.xsky130_asc_cap_mim_m3_1_2.x14.a    -1.14707e-22
xbgr.xsky130_asc_cap_mim_m3_1_2.x14.b1     -9.8255e-23
xbgr.xsky130_asc_cap_mim_m3_1_2.x15.a    -1.14707e-22
xbgr.xsky130_asc_cap_mim_m3_1_2.x15.b1     -9.8255e-23
xbgr.xsky130_asc_cap_mim_m3_1_2.x16.a    -1.14707e-22
xbgr.xsky130_asc_cap_mim_m3_1_2.x16.b1     -9.8255e-23
xbgr.xsky130_asc_cap_mim_m3_1_2.x17.a    -1.14707e-22
xbgr.xsky130_asc_cap_mim_m3_1_2.x17.b1     -9.8255e-23
xbgr.xsky130_asc_cap_mim_m3_1_2.x18.a    -1.14707e-22
xbgr.xsky130_asc_cap_mim_m3_1_2.x18.b1     -9.8255e-23
xbgr.xsky130_asc_cap_mim_m3_1_2.x19.a    -1.14707e-22
xbgr.xsky130_asc_cap_mim_m3_1_2.x19.b1     -9.8255e-23
xbgr.xsky130_asc_cap_mim_m3_1_3.x0.a    -1.14707e-22
xbgr.xsky130_asc_cap_mim_m3_1_3.x0.b1     -9.8255e-23
xbgr.xsky130_asc_cap_mim_m3_1_3.x1.a    -1.14707e-22
xbgr.xsky130_asc_cap_mim_m3_1_3.x1.b1     -9.8255e-23
xbgr.xsky130_asc_cap_mim_m3_1_3.x2.a    -1.14707e-22
xbgr.xsky130_asc_cap_mim_m3_1_3.x2.b1     -9.8255e-23
xbgr.xsky130_asc_cap_mim_m3_1_3.x3.a    -1.14707e-22
xbgr.xsky130_asc_cap_mim_m3_1_3.x3.b1     -9.8255e-23
xbgr.xsky130_asc_cap_mim_m3_1_3.x4.a    -1.14707e-22
xbgr.xsky130_asc_cap_mim_m3_1_3.x4.b1     -9.8255e-23
xbgr.xsky130_asc_cap_mim_m3_1_3.x5.a    -1.14707e-22
xbgr.xsky130_asc_cap_mim_m3_1_3.x5.b1     -9.8255e-23
xbgr.xsky130_asc_cap_mim_m3_1_3.x6.a    -1.14707e-22
xbgr.xsky130_asc_cap_mim_m3_1_3.x6.b1     -9.8255e-23
xbgr.xsky130_asc_cap_mim_m3_1_3.x7.a    -1.14707e-22
xbgr.xsky130_asc_cap_mim_m3_1_3.x7.b1     -9.8255e-23
xbgr.xsky130_asc_cap_mim_m3_1_3.x8.a    -1.14707e-22
xbgr.xsky130_asc_cap_mim_m3_1_3.x8.b1     -9.8255e-23
xbgr.xsky130_asc_cap_mim_m3_1_3.x9.a    -1.14707e-22
xbgr.xsky130_asc_cap_mim_m3_1_3.x9.b1     -9.8255e-23
xbgr.xsky130_asc_cap_mim_m3_1_3.x10.a    -1.14707e-22
xbgr.xsky130_asc_cap_mim_m3_1_3.x10.b1     -9.8255e-23
xbgr.xsky130_asc_cap_mim_m3_1_3.x11.a    -1.14707e-22
xbgr.xsky130_asc_cap_mim_m3_1_3.x11.b1     -9.8255e-23
xbgr.xsky130_asc_cap_mim_m3_1_3.x12.a    -1.14707e-22
xbgr.xsky130_asc_cap_mim_m3_1_3.x12.b1     -9.8255e-23
xbgr.xsky130_asc_cap_mim_m3_1_3.x13.a    -1.14707e-22
xbgr.xsky130_asc_cap_mim_m3_1_3.x13.b1     -9.8255e-23
xbgr.xsky130_asc_cap_mim_m3_1_3.x14.a    -1.14707e-22
xbgr.xsky130_asc_cap_mim_m3_1_3.x14.b1     -9.8255e-23
xbgr.xsky130_asc_cap_mim_m3_1_3.x15.a    -1.14707e-22
xbgr.xsky130_asc_cap_mim_m3_1_3.x15.b1     -9.8255e-23
xbgr.xsky130_asc_cap_mim_m3_1_3.x16.a    -1.14707e-22
xbgr.xsky130_asc_cap_mim_m3_1_3.x16.b1     -9.8255e-23
xbgr.xsky130_asc_cap_mim_m3_1_3.x17.a    -1.14707e-22
xbgr.xsky130_asc_cap_mim_m3_1_3.x17.b1     -9.8255e-23
xbgr.xsky130_asc_cap_mim_m3_1_3.x18.a    -1.14707e-22
xbgr.xsky130_asc_cap_mim_m3_1_3.x18.b1     -9.8255e-23
xbgr.xsky130_asc_cap_mim_m3_1_3.x19.a    -1.14707e-22
xbgr.xsky130_asc_cap_mim_m3_1_3.x19.b1     -9.8255e-23
xbgr.xsky130_asc_cap_mim_m3_1_4.x0.a    -1.14707e-22
xbgr.xsky130_asc_cap_mim_m3_1_4.x0.b1     -9.8255e-23
xbgr.xsky130_asc_cap_mim_m3_1_4.x1.a    -1.14707e-22
xbgr.xsky130_asc_cap_mim_m3_1_4.x1.b1     -9.8255e-23
xbgr.xsky130_asc_cap_mim_m3_1_4.x2.a    -1.14707e-22
xbgr.xsky130_asc_cap_mim_m3_1_4.x2.b1     -9.8255e-23
xbgr.xsky130_asc_cap_mim_m3_1_4.x3.a    -1.14707e-22
xbgr.xsky130_asc_cap_mim_m3_1_4.x3.b1     -9.8255e-23
xbgr.xsky130_asc_cap_mim_m3_1_4.x4.a    -1.14707e-22
xbgr.xsky130_asc_cap_mim_m3_1_4.x4.b1     -9.8255e-23
xbgr.xsky130_asc_cap_mim_m3_1_4.x5.a    -1.14707e-22
xbgr.xsky130_asc_cap_mim_m3_1_4.x5.b1     -9.8255e-23
xbgr.xsky130_asc_cap_mim_m3_1_4.x6.a    -1.14707e-22
xbgr.xsky130_asc_cap_mim_m3_1_4.x6.b1     -9.8255e-23
xbgr.xsky130_asc_cap_mim_m3_1_4.x7.a    -1.14707e-22
xbgr.xsky130_asc_cap_mim_m3_1_4.x7.b1     -9.8255e-23
xbgr.xsky130_asc_cap_mim_m3_1_4.x8.a    -1.14707e-22
xbgr.xsky130_asc_cap_mim_m3_1_4.x8.b1     -9.8255e-23
xbgr.xsky130_asc_cap_mim_m3_1_4.x9.a    -1.14707e-22
xbgr.xsky130_asc_cap_mim_m3_1_4.x9.b1     -9.8255e-23
xbgr.xsky130_asc_cap_mim_m3_1_4.x10.a    -1.14707e-22
xbgr.xsky130_asc_cap_mim_m3_1_4.x10.b1     -9.8255e-23
xbgr.xsky130_asc_cap_mim_m3_1_4.x11.a    -1.14707e-22
xbgr.xsky130_asc_cap_mim_m3_1_4.x11.b1     -9.8255e-23
xbgr.xsky130_asc_cap_mim_m3_1_4.x12.a    -1.14707e-22
xbgr.xsky130_asc_cap_mim_m3_1_4.x12.b1     -9.8255e-23
xbgr.xsky130_asc_cap_mim_m3_1_4.x13.a    -1.14707e-22
xbgr.xsky130_asc_cap_mim_m3_1_4.x13.b1     -9.8255e-23
xbgr.xsky130_asc_cap_mim_m3_1_4.x14.a    -1.14707e-22
xbgr.xsky130_asc_cap_mim_m3_1_4.x14.b1     -9.8255e-23
xbgr.xsky130_asc_cap_mim_m3_1_4.x15.a    -1.14707e-22
xbgr.xsky130_asc_cap_mim_m3_1_4.x15.b1     -9.8255e-23
xbgr.xsky130_asc_cap_mim_m3_1_4.x16.a    -1.14707e-22
xbgr.xsky130_asc_cap_mim_m3_1_4.x16.b1     -9.8255e-23
xbgr.xsky130_asc_cap_mim_m3_1_4.x17.a    -1.14707e-22
xbgr.xsky130_asc_cap_mim_m3_1_4.x17.b1     -9.8255e-23
xbgr.xsky130_asc_cap_mim_m3_1_4.x18.a    -1.14707e-22
xbgr.xsky130_asc_cap_mim_m3_1_4.x18.b1     -9.8255e-23
xbgr.xsky130_asc_cap_mim_m3_1_4.x19.a    -1.14707e-22
xbgr.xsky130_asc_cap_mim_m3_1_4.x19.b1     -9.8255e-23
xbgr.xsky130_asc_cap_mim_m3_1_5.x0.a     2.40595e-18
xbgr.xsky130_asc_cap_mim_m3_1_5.x0.b1     2.40595e-18
xbgr.xsky130_asc_cap_mim_m3_1_5.x1.a     2.40595e-18
xbgr.xsky130_asc_cap_mim_m3_1_5.x1.b1     2.40595e-18
xbgr.xsky130_asc_cap_mim_m3_1_5.x2.a     2.40595e-18
xbgr.xsky130_asc_cap_mim_m3_1_5.x2.b1     2.40595e-18
xbgr.xsky130_asc_cap_mim_m3_1_5.x3.a     2.40595e-18
xbgr.xsky130_asc_cap_mim_m3_1_5.x3.b1     2.40595e-18
xbgr.xsky130_asc_cap_mim_m3_1_5.x4.a     2.40595e-18
xbgr.xsky130_asc_cap_mim_m3_1_5.x4.b1     2.40595e-18
xbgr.xsky130_asc_cap_mim_m3_1_5.x5.a     2.40595e-18
xbgr.xsky130_asc_cap_mim_m3_1_5.x5.b1     2.40595e-18
xbgr.xsky130_asc_cap_mim_m3_1_5.x6.a     2.40595e-18
xbgr.xsky130_asc_cap_mim_m3_1_5.x6.b1     2.40595e-18
xbgr.xsky130_asc_cap_mim_m3_1_5.x7.a     2.40595e-18
xbgr.xsky130_asc_cap_mim_m3_1_5.x7.b1     2.40595e-18
xbgr.xsky130_asc_cap_mim_m3_1_5.x8.a     2.40595e-18
xbgr.xsky130_asc_cap_mim_m3_1_5.x8.b1     2.40595e-18
xbgr.xsky130_asc_cap_mim_m3_1_5.x9.a     2.40595e-18
xbgr.xsky130_asc_cap_mim_m3_1_5.x9.b1     2.40595e-18
xbgr.xsky130_asc_cap_mim_m3_1_5.x10.a     2.40595e-18
xbgr.xsky130_asc_cap_mim_m3_1_5.x10.b1     2.40595e-18
xbgr.xsky130_asc_cap_mim_m3_1_5.x11.a     2.40595e-18
xbgr.xsky130_asc_cap_mim_m3_1_5.x11.b1     2.40595e-18
xbgr.xsky130_asc_cap_mim_m3_1_5.x12.a     2.40595e-18
xbgr.xsky130_asc_cap_mim_m3_1_5.x12.b1     2.40595e-18
xbgr.xsky130_asc_cap_mim_m3_1_5.x13.a     2.40595e-18
xbgr.xsky130_asc_cap_mim_m3_1_5.x13.b1     2.40595e-18
xbgr.xsky130_asc_cap_mim_m3_1_5.x14.a     2.40595e-18
xbgr.xsky130_asc_cap_mim_m3_1_5.x14.b1     2.40595e-18
xbgr.xsky130_asc_cap_mim_m3_1_5.x15.a     2.40595e-18
xbgr.xsky130_asc_cap_mim_m3_1_5.x15.b1     2.40595e-18
xbgr.xsky130_asc_cap_mim_m3_1_5.x16.a     2.40595e-18
xbgr.xsky130_asc_cap_mim_m3_1_5.x16.b1     2.40595e-18
xbgr.xsky130_asc_cap_mim_m3_1_5.x17.a     2.40595e-18
xbgr.xsky130_asc_cap_mim_m3_1_5.x17.b1     2.40595e-18
xbgr.xsky130_asc_cap_mim_m3_1_5.x18.a     2.40595e-18
xbgr.xsky130_asc_cap_mim_m3_1_5.x18.b1     2.40595e-18
xbgr.xsky130_asc_cap_mim_m3_1_5.x19.a     2.40595e-18
xbgr.xsky130_asc_cap_mim_m3_1_5.x19.b1     2.40595e-18
xbgr.xsky130_asc_cap_mim_m3_1_6.x0.a     2.40595e-18
xbgr.xsky130_asc_cap_mim_m3_1_6.x0.b1     2.40595e-18
xbgr.xsky130_asc_cap_mim_m3_1_6.x1.a     2.40595e-18
xbgr.xsky130_asc_cap_mim_m3_1_6.x1.b1     2.40595e-18
xbgr.xsky130_asc_cap_mim_m3_1_6.x2.a     2.40595e-18
xbgr.xsky130_asc_cap_mim_m3_1_6.x2.b1     2.40595e-18
xbgr.xsky130_asc_cap_mim_m3_1_6.x3.a     2.40595e-18
xbgr.xsky130_asc_cap_mim_m3_1_6.x3.b1     2.40595e-18
xbgr.xsky130_asc_cap_mim_m3_1_6.x4.a     2.40595e-18
xbgr.xsky130_asc_cap_mim_m3_1_6.x4.b1     2.40595e-18
xbgr.xsky130_asc_cap_mim_m3_1_6.x5.a     2.40595e-18
xbgr.xsky130_asc_cap_mim_m3_1_6.x5.b1     2.40595e-18
xbgr.xsky130_asc_cap_mim_m3_1_6.x6.a     2.40595e-18
xbgr.xsky130_asc_cap_mim_m3_1_6.x6.b1     2.40595e-18
xbgr.xsky130_asc_cap_mim_m3_1_6.x7.a     2.40595e-18
xbgr.xsky130_asc_cap_mim_m3_1_6.x7.b1     2.40595e-18
xbgr.xsky130_asc_cap_mim_m3_1_6.x8.a     2.40595e-18
xbgr.xsky130_asc_cap_mim_m3_1_6.x8.b1     2.40595e-18
xbgr.xsky130_asc_cap_mim_m3_1_6.x9.a     2.40595e-18
xbgr.xsky130_asc_cap_mim_m3_1_6.x9.b1     2.40595e-18
xbgr.xsky130_asc_cap_mim_m3_1_6.x10.a     2.40595e-18
xbgr.xsky130_asc_cap_mim_m3_1_6.x10.b1     2.40595e-18
xbgr.xsky130_asc_cap_mim_m3_1_6.x11.a     2.40595e-18
xbgr.xsky130_asc_cap_mim_m3_1_6.x11.b1     2.40595e-18
xbgr.xsky130_asc_cap_mim_m3_1_6.x12.a     2.40595e-18
xbgr.xsky130_asc_cap_mim_m3_1_6.x12.b1     2.40595e-18
xbgr.xsky130_asc_cap_mim_m3_1_6.x13.a     2.40595e-18
xbgr.xsky130_asc_cap_mim_m3_1_6.x13.b1     2.40595e-18
xbgr.xsky130_asc_cap_mim_m3_1_6.x14.a     2.40595e-18
xbgr.xsky130_asc_cap_mim_m3_1_6.x14.b1     2.40595e-18
xbgr.xsky130_asc_cap_mim_m3_1_6.x15.a     2.40595e-18
xbgr.xsky130_asc_cap_mim_m3_1_6.x15.b1     2.40595e-18
xbgr.xsky130_asc_cap_mim_m3_1_6.x16.a     2.40595e-18
xbgr.xsky130_asc_cap_mim_m3_1_6.x16.b1     2.40595e-18
xbgr.xsky130_asc_cap_mim_m3_1_6.x17.a     2.40595e-18
xbgr.xsky130_asc_cap_mim_m3_1_6.x17.b1     2.40595e-18
xbgr.xsky130_asc_cap_mim_m3_1_6.x18.a     2.40595e-18
xbgr.xsky130_asc_cap_mim_m3_1_6.x18.b1     2.40595e-18
xbgr.xsky130_asc_cap_mim_m3_1_6.x19.a     2.40595e-18
xbgr.xsky130_asc_cap_mim_m3_1_6.x19.b1     2.40595e-18
xbgr.xsky130_asc_res_xhigh_po_2p85_1_0.x0.xsky130_fd_pr__res_xhigh_po_2p85.ra     -1.3142e-17
xbgr.sky130_asc_res_xhigh_po_2p85_1_0/rin      -1.329e-17
xbgr.xsky130_asc_res_xhigh_po_2p85_1_0.x1.xsky130_fd_pr__res_xhigh_po_2p85.ra    -1.47968e-19
xbgr.xsky130_asc_res_xhigh_po_2p85_1_1.x0.xsky130_fd_pr__res_xhigh_po_2p85.ra    -2.63858e-17
xbgr.sky130_asc_res_xhigh_po_2p85_1_1/rin    -2.65333e-17
xbgr.xsky130_asc_res_xhigh_po_2p85_1_1.x1.xsky130_fd_pr__res_xhigh_po_2p85.ra    -1.34375e-17
xbgr.xsky130_asc_cap_mim_m3_1_7.x0.a     2.40595e-18
xbgr.xsky130_asc_cap_mim_m3_1_7.x0.b1     2.40595e-18
xbgr.xsky130_asc_cap_mim_m3_1_7.x1.a     2.40595e-18
xbgr.xsky130_asc_cap_mim_m3_1_7.x1.b1     2.40595e-18
xbgr.xsky130_asc_cap_mim_m3_1_7.x2.a     2.40595e-18
xbgr.xsky130_asc_cap_mim_m3_1_7.x2.b1     2.40595e-18
xbgr.xsky130_asc_cap_mim_m3_1_7.x3.a     2.40595e-18
xbgr.xsky130_asc_cap_mim_m3_1_7.x3.b1     2.40595e-18
xbgr.xsky130_asc_cap_mim_m3_1_7.x4.a     2.40595e-18
xbgr.xsky130_asc_cap_mim_m3_1_7.x4.b1     2.40595e-18
xbgr.xsky130_asc_cap_mim_m3_1_7.x5.a     2.40595e-18
xbgr.xsky130_asc_cap_mim_m3_1_7.x5.b1     2.40595e-18
xbgr.xsky130_asc_cap_mim_m3_1_7.x6.a     2.40595e-18
xbgr.xsky130_asc_cap_mim_m3_1_7.x6.b1     2.40595e-18
xbgr.xsky130_asc_cap_mim_m3_1_7.x7.a     2.40595e-18
xbgr.xsky130_asc_cap_mim_m3_1_7.x7.b1     2.40595e-18
xbgr.xsky130_asc_cap_mim_m3_1_7.x8.a     2.40595e-18
xbgr.xsky130_asc_cap_mim_m3_1_7.x8.b1     2.40595e-18
xbgr.xsky130_asc_cap_mim_m3_1_7.x9.a     2.40595e-18
xbgr.xsky130_asc_cap_mim_m3_1_7.x9.b1     2.40595e-18
xbgr.xsky130_asc_cap_mim_m3_1_7.x10.a     2.40595e-18
xbgr.xsky130_asc_cap_mim_m3_1_7.x10.b1     2.40595e-18
xbgr.xsky130_asc_cap_mim_m3_1_7.x11.a     2.40595e-18
xbgr.xsky130_asc_cap_mim_m3_1_7.x11.b1     2.40595e-18
xbgr.xsky130_asc_cap_mim_m3_1_7.x12.a     2.40595e-18
xbgr.xsky130_asc_cap_mim_m3_1_7.x12.b1     2.40595e-18
xbgr.xsky130_asc_cap_mim_m3_1_7.x13.a     2.40595e-18
xbgr.xsky130_asc_cap_mim_m3_1_7.x13.b1     2.40595e-18
xbgr.xsky130_asc_cap_mim_m3_1_7.x14.a     2.40595e-18
xbgr.xsky130_asc_cap_mim_m3_1_7.x14.b1     2.40595e-18
xbgr.xsky130_asc_cap_mim_m3_1_7.x15.a     2.40595e-18
xbgr.xsky130_asc_cap_mim_m3_1_7.x15.b1     2.40595e-18
xbgr.xsky130_asc_cap_mim_m3_1_7.x16.a     2.40595e-18
xbgr.xsky130_asc_cap_mim_m3_1_7.x16.b1     2.40595e-18
xbgr.xsky130_asc_cap_mim_m3_1_7.x17.a     2.40595e-18
xbgr.xsky130_asc_cap_mim_m3_1_7.x17.b1     2.40595e-18
xbgr.xsky130_asc_cap_mim_m3_1_7.x18.a     2.40595e-18
xbgr.xsky130_asc_cap_mim_m3_1_7.x18.b1     2.40595e-18
xbgr.xsky130_asc_cap_mim_m3_1_7.x19.a     2.40595e-18
xbgr.xsky130_asc_cap_mim_m3_1_7.x19.b1     2.40595e-18
xbgr.xsky130_asc_cap_mim_m3_1_8.x0.a     2.40595e-18
xbgr.xsky130_asc_cap_mim_m3_1_8.x0.b1     2.40595e-18
xbgr.xsky130_asc_cap_mim_m3_1_8.x1.a     2.40595e-18
xbgr.xsky130_asc_cap_mim_m3_1_8.x1.b1     2.40595e-18
xbgr.xsky130_asc_cap_mim_m3_1_8.x2.a     2.40595e-18
xbgr.xsky130_asc_cap_mim_m3_1_8.x2.b1     2.40595e-18
xbgr.xsky130_asc_cap_mim_m3_1_8.x3.a     2.40595e-18
xbgr.xsky130_asc_cap_mim_m3_1_8.x3.b1     2.40595e-18
xbgr.xsky130_asc_cap_mim_m3_1_8.x4.a     2.40595e-18
xbgr.xsky130_asc_cap_mim_m3_1_8.x4.b1     2.40595e-18
xbgr.xsky130_asc_cap_mim_m3_1_8.x5.a     2.40595e-18
xbgr.xsky130_asc_cap_mim_m3_1_8.x5.b1     2.40595e-18
xbgr.xsky130_asc_cap_mim_m3_1_8.x6.a     2.40595e-18
xbgr.xsky130_asc_cap_mim_m3_1_8.x6.b1     2.40595e-18
xbgr.xsky130_asc_cap_mim_m3_1_8.x7.a     2.40595e-18
xbgr.xsky130_asc_cap_mim_m3_1_8.x7.b1     2.40595e-18
xbgr.xsky130_asc_cap_mim_m3_1_8.x8.a     2.40595e-18
xbgr.xsky130_asc_cap_mim_m3_1_8.x8.b1     2.40595e-18
xbgr.xsky130_asc_cap_mim_m3_1_8.x9.a     2.40595e-18
xbgr.xsky130_asc_cap_mim_m3_1_8.x9.b1     2.40595e-18
xbgr.xsky130_asc_cap_mim_m3_1_8.x10.a     2.40595e-18
xbgr.xsky130_asc_cap_mim_m3_1_8.x10.b1     2.40595e-18
xbgr.xsky130_asc_cap_mim_m3_1_8.x11.a     2.40595e-18
xbgr.xsky130_asc_cap_mim_m3_1_8.x11.b1     2.40595e-18
xbgr.xsky130_asc_cap_mim_m3_1_8.x12.a     2.40595e-18
xbgr.xsky130_asc_cap_mim_m3_1_8.x12.b1     2.40595e-18
xbgr.xsky130_asc_cap_mim_m3_1_8.x13.a     2.40595e-18
xbgr.xsky130_asc_cap_mim_m3_1_8.x13.b1     2.40595e-18
xbgr.xsky130_asc_cap_mim_m3_1_8.x14.a     2.40595e-18
xbgr.xsky130_asc_cap_mim_m3_1_8.x14.b1     2.40595e-18
xbgr.xsky130_asc_cap_mim_m3_1_8.x15.a     2.40595e-18
xbgr.xsky130_asc_cap_mim_m3_1_8.x15.b1     2.40595e-18
xbgr.xsky130_asc_cap_mim_m3_1_8.x16.a     2.40595e-18
xbgr.xsky130_asc_cap_mim_m3_1_8.x16.b1     2.40595e-18
xbgr.xsky130_asc_cap_mim_m3_1_8.x17.a     2.40595e-18
xbgr.xsky130_asc_cap_mim_m3_1_8.x17.b1     2.40595e-18
xbgr.xsky130_asc_cap_mim_m3_1_8.x18.a     2.40595e-18
xbgr.xsky130_asc_cap_mim_m3_1_8.x18.b1     2.40595e-18
xbgr.xsky130_asc_cap_mim_m3_1_8.x19.a     2.40595e-18
xbgr.xsky130_asc_cap_mim_m3_1_8.x19.b1     2.40595e-18
xbgr.xsky130_asc_res_xhigh_po_2p85_1_2.x0.xsky130_fd_pr__res_xhigh_po_2p85.ra    -3.95761e-17
xbgr.sky130_asc_res_xhigh_po_2p85_1_2/rin    -3.97227e-17
xbgr.xsky130_asc_res_xhigh_po_2p85_1_2.x1.xsky130_fd_pr__res_xhigh_po_2p85.ra    -2.66805e-17
xbgr.xsky130_asc_res_xhigh_po_2p85_1_3.x0.xsky130_fd_pr__res_xhigh_po_2p85.ra    -5.25678e-17
xbgr.sky130_asc_res_xhigh_po_2p85_1_3/rin    -5.27117e-17
xbgr.xsky130_asc_res_xhigh_po_2p85_1_3.x1.xsky130_fd_pr__res_xhigh_po_2p85.ra    -3.98682e-17
xbgr.xsky130_asc_cap_mim_m3_1_9.x0.a     2.40595e-18
xbgr.xsky130_asc_cap_mim_m3_1_9.x0.b1     2.40595e-18
xbgr.xsky130_asc_cap_mim_m3_1_9.x1.a     2.40595e-18
xbgr.xsky130_asc_cap_mim_m3_1_9.x1.b1     2.40595e-18
xbgr.xsky130_asc_cap_mim_m3_1_9.x2.a     2.40595e-18
xbgr.xsky130_asc_cap_mim_m3_1_9.x2.b1     2.40595e-18
xbgr.xsky130_asc_cap_mim_m3_1_9.x3.a     2.40595e-18
xbgr.xsky130_asc_cap_mim_m3_1_9.x3.b1     2.40595e-18
xbgr.xsky130_asc_cap_mim_m3_1_9.x4.a     2.40595e-18
xbgr.xsky130_asc_cap_mim_m3_1_9.x4.b1     2.40595e-18
xbgr.xsky130_asc_cap_mim_m3_1_9.x5.a     2.40595e-18
xbgr.xsky130_asc_cap_mim_m3_1_9.x5.b1     2.40595e-18
xbgr.xsky130_asc_cap_mim_m3_1_9.x6.a     2.40595e-18
xbgr.xsky130_asc_cap_mim_m3_1_9.x6.b1     2.40595e-18
xbgr.xsky130_asc_cap_mim_m3_1_9.x7.a     2.40595e-18
xbgr.xsky130_asc_cap_mim_m3_1_9.x7.b1     2.40595e-18
xbgr.xsky130_asc_cap_mim_m3_1_9.x8.a     2.40595e-18
xbgr.xsky130_asc_cap_mim_m3_1_9.x8.b1     2.40595e-18
xbgr.xsky130_asc_cap_mim_m3_1_9.x9.a     2.40595e-18
xbgr.xsky130_asc_cap_mim_m3_1_9.x9.b1     2.40595e-18
xbgr.xsky130_asc_cap_mim_m3_1_9.x10.a     2.40595e-18
xbgr.xsky130_asc_cap_mim_m3_1_9.x10.b1     2.40595e-18
xbgr.xsky130_asc_cap_mim_m3_1_9.x11.a     2.40595e-18
xbgr.xsky130_asc_cap_mim_m3_1_9.x11.b1     2.40595e-18
xbgr.xsky130_asc_cap_mim_m3_1_9.x12.a     2.40595e-18
xbgr.xsky130_asc_cap_mim_m3_1_9.x12.b1     2.40595e-18
xbgr.xsky130_asc_cap_mim_m3_1_9.x13.a     2.40595e-18
xbgr.xsky130_asc_cap_mim_m3_1_9.x13.b1     2.40595e-18
xbgr.xsky130_asc_cap_mim_m3_1_9.x14.a     2.40595e-18
xbgr.xsky130_asc_cap_mim_m3_1_9.x14.b1     2.40595e-18
xbgr.xsky130_asc_cap_mim_m3_1_9.x15.a     2.40595e-18
xbgr.xsky130_asc_cap_mim_m3_1_9.x15.b1     2.40595e-18
xbgr.xsky130_asc_cap_mim_m3_1_9.x16.a     2.40595e-18
xbgr.xsky130_asc_cap_mim_m3_1_9.x16.b1     2.40595e-18
xbgr.xsky130_asc_cap_mim_m3_1_9.x17.a     2.40595e-18
xbgr.xsky130_asc_cap_mim_m3_1_9.x17.b1     2.40595e-18
xbgr.xsky130_asc_cap_mim_m3_1_9.x18.a     2.40595e-18
xbgr.xsky130_asc_cap_mim_m3_1_9.x18.b1     2.40595e-18
xbgr.xsky130_asc_cap_mim_m3_1_9.x19.a     2.40595e-18
xbgr.xsky130_asc_cap_mim_m3_1_9.x19.b1     2.40595e-18
xbgr.xsky130_asc_res_xhigh_po_2p85_1_4.x0.xsky130_fd_pr__res_xhigh_po_2p85.ra    -6.51383e-17
xbgr.sky130_asc_res_xhigh_po_2p85_1_4/rin     -6.5277e-17
xbgr.xsky130_asc_res_xhigh_po_2p85_1_4.x1.xsky130_fd_pr__res_xhigh_po_2p85.ra    -5.28529e-17
xbgr.xsky130_asc_res_xhigh_po_2p85_1_5.x0.xsky130_fd_pr__res_xhigh_po_2p85.ra     -7.7338e-17
xbgr.sky130_asc_res_xhigh_po_2p85_1_5/rin    -7.74735e-17
xbgr.xsky130_asc_res_xhigh_po_2p85_1_5.x1.xsky130_fd_pr__res_xhigh_po_2p85.ra    -6.54132e-17
xbgr.xsky130_asc_res_xhigh_po_2p85_1_6.x0.xsky130_fd_pr__res_xhigh_po_2p85.ra    -8.99715e-17
xbgr.xsky130_asc_res_xhigh_po_2p85_1_6.x1.xsky130_fd_pr__res_xhigh_po_2p85.ra    -7.76093e-17
vgate                                        0
v2#branch                         -3.94525e-21
vq2#branch                                   0
vr1#branch                                   0
vm3#branch                                   0
vm2#branch                                   0
vm1#branch                                   0
vr2#branch                                   0
vr4#branch                                   0
v1#branch                         -3.27016e-20


No. of Data Rows : 3046
binary raw file "./sims/gen3_0/post_temp0_bandgap_real_tran_gauss212.raw"
Reset re-loads circuit **.subckt tsmc_bandgap_real_tran_gauss

Circuit: **.subckt tsmc_bandgap_real_tran_gauss

Doing analysis at TEMP = 0.000000 and TNOM = 27.000000

Warning: singular matrix:  check nodes vgate and vgate

Note: Starting dynamic gmin stepping
Trying gmin =   1.0000E-03 Note: One successful gmin step
Trying gmin =   1.0000E-04 Note: One successful gmin step
Trying gmin =   1.0000E-05 Note: One successful gmin step
Trying gmin =   1.0000E-06 Note: One successful gmin step
Trying gmin =   1.0000E-07 Note: One successful gmin step
Trying gmin =   1.0000E-08 Note: One successful gmin step
Trying gmin =   1.0000E-09 Note: One successful gmin step
Trying gmin =   1.0000E-10 Note: One successful gmin step
Trying gmin =   1.0000E-11 Note: One successful gmin step
Trying gmin =   1.0000E-12 Note: One successful gmin step
Trying gmin =   1.0000E-12 Note: One successful gmin step
Warning: singular matrix:  check nodes vgate and vgate

Warning: Dynamic gmin stepping failed
Note: Starting true gmin stepping
Trying gmin =   1.0000E-03 Warning: singular matrix:  check nodes vgate and vgate

Warning: Further gmin increment
Trying gmin =   5.6234E-03 Warning: singular matrix:  check nodes vgate and vgate

Warning: Further gmin increment
Trying gmin =   8.6596E-03 Warning: singular matrix:  check nodes vgate and vgate

Warning: Further gmin increment
Trying gmin =   9.6466E-03 Warning: singular matrix:  check nodes vgate and vgate

Warning: Further gmin increment
Trying gmin =   9.9105E-03 Warning: singular matrix:  check nodes vgate and vgate

Warning: Further gmin increment
Trying gmin =   9.9775E-03 Warning: singular matrix:  check nodes vgate and vgate

Warning: Further gmin increment
Trying gmin =   9.9944E-03 Warning: singular matrix:  check nodes vgate and vgate

Warning: Further gmin increment
Trying gmin =   9.9986E-03 Warning: singular matrix:  check nodes vgate and vgate

Warning: Further gmin increment
Trying gmin =   9.9996E-03 Warning: singular matrix:  check nodes vgate and vgate

Warning: Last gmin step failed
Warning: singular matrix:  check nodes vgate and vgate

Warning: True gmin stepping failed
Note: Starting source stepping
Supplies reduced to   0.0000% Warning: singular matrix:  check nodes vgate and vgate


Trying gmin =   1.0000E-02 Note: One successful gmin step
Trying gmin =   1.0000E-03 Note: One successful gmin step
Trying gmin =   1.0000E-04 Note: One successful gmin step
Trying gmin =   1.0000E-05 Note: One successful gmin step
Trying gmin =   1.0000E-06 Note: One successful gmin step
Trying gmin =   1.0000E-07 Note: One successful gmin step
Trying gmin =   1.0000E-08 Note: One successful gmin step
Trying gmin =   1.0000E-09 Note: One successful gmin step
Trying gmin =   1.0000E-10 Note: One successful gmin step
Trying gmin =   1.0000E-11 Note: One successful gmin step
Trying gmin =   1.0000E-12 Note: One successful gmin step
Note: One successful source step
Supplies reduced to   0.1000% Warning: singular matrix:  check nodes vgate and vgate

Supplies reduced to   0.0000% Warning: singular matrix:  check nodes vgate and vgate

Warning: source stepping failed
Note: Transient op started
Note: Transient op finished successfully

Initial Transient Solution
--------------------------

Node                                   Voltage
----                                   -------
vdd                                          0
vb                                 -1.1931e-16
net2                               -1.1931e-16
net1                               -1.1931e-16
net5                              -1.26206e-16
va                                -1.26206e-16
net4                               -1.1931e-16
net6                              -1.99449e-16
vbg                               -1.99449e-16
net3                              -1.26206e-16
veb                               -1.26206e-16
xbgr.xsky130_asc_res_xhigh_po_2p85_1_7.x0.xsky130_fd_pr__res_xhigh_po_2p85.ra    -1.57439e-16
xbgr.sky130_asc_res_xhigh_po_2p85_1_7/rin    -1.57745e-16
xbgr.xsky130_asc_res_xhigh_po_2p85_1_7.x1.xsky130_fd_pr__res_xhigh_po_2p85.ra    -1.32795e-16
xbgr.sky130_asc_res_xhigh_po_2p85_1_6/rin     -1.3254e-16
xbgr.xsky130_asc_res_xhigh_po_2p85_1_8.x0.xsky130_fd_pr__res_xhigh_po_2p85.ra     -1.9891e-16
xbgr.xsky130_asc_res_xhigh_po_2p85_1_8.x1.xsky130_fd_pr__res_xhigh_po_2p85.ra    -1.58135e-16
xbgr.xsky130_asc_res_xhigh_po_2p85_1_9.x0.xsky130_fd_pr__res_xhigh_po_2p85.ra    -1.71082e-17
xbgr.sky130_asc_res_xhigh_po_2p85_1_9/rin    -1.71905e-17
xbgr.xsky130_asc_res_xhigh_po_2p85_1_9.x1.xsky130_fd_pr__res_xhigh_po_2p85.ra    -9.86629e-18
xbgr.sky130_asc_res_xhigh_po_2p85_2_0/rin     -9.7836e-18
xbgr.sky130_asc_cap_mim_m3_1_4/cout     3.70188e-15
xbgr.xsky130_asc_res_xhigh_po_2p85_1_30.x0.xsky130_fd_pr__res_xhigh_po_2p85.ra    -1.26078e-16
xbgr.xsky130_asc_res_xhigh_po_2p85_1_30.x1.xsky130_fd_pr__res_xhigh_po_2p85.ra    -1.14823e-16
xbgr.sky130_asc_res_xhigh_po_2p85_1_29/rin    -1.14694e-16
xbgr.xsky130_asc_res_xhigh_po_2p85_1_20.x0.xsky130_fd_pr__res_xhigh_po_2p85.ra    -1.19207e-16
xbgr.xsky130_asc_res_xhigh_po_2p85_1_20.x1.xsky130_fd_pr__res_xhigh_po_2p85.ra    -1.07052e-16
xbgr.sky130_asc_res_xhigh_po_2p85_1_19/rin    -1.06878e-16
xbgr.sky130_asc_res_xhigh_po_2p85_1_19/rout    -8.67273e-17
xbgr.xsky130_asc_res_xhigh_po_2p85_1_21.x0.xsky130_fd_pr__res_xhigh_po_2p85.ra    -2.37492e-17
xbgr.sky130_asc_res_xhigh_po_2p85_1_21/rin    -2.38732e-17
xbgr.xsky130_asc_res_xhigh_po_2p85_1_21.x1.xsky130_fd_pr__res_xhigh_po_2p85.ra      -1.286e-17
xbgr.sky130_asc_res_xhigh_po_2p85_2_1/rin    -1.27359e-17
xbgr.xsky130_asc_res_xhigh_po_2p85_1_10.x0.xsky130_fd_pr__res_xhigh_po_2p85.ra    -2.46081e-17
xbgr.sky130_asc_res_xhigh_po_2p85_1_10/rin     -2.4692e-17
xbgr.xsky130_asc_res_xhigh_po_2p85_1_10.x1.xsky130_fd_pr__res_xhigh_po_2p85.ra    -1.72738e-17
xbgr.xsky130_asc_res_xhigh_po_2p85_2_0.x0.t1    -4.28159e-20
xbgr.xsky130_asc_res_xhigh_po_2p85_2_0.x0.t2    -5.36711e-18
xbgr.xsky130_asc_res_xhigh_po_2p85_2_0.x1.t1    -9.76995e-18
xbgr.xsky130_asc_res_xhigh_po_2p85_2_0.x1.t2    -5.42359e-18
xbgr.xsky130_asc_res_xhigh_po_2p85_1_22.x0.xsky130_fd_pr__res_xhigh_po_2p85.ra    -3.49682e-17
xbgr.sky130_asc_res_xhigh_po_2p85_1_22/rin    -3.50932e-17
xbgr.xsky130_asc_res_xhigh_po_2p85_1_22.x1.xsky130_fd_pr__res_xhigh_po_2p85.ra    -2.39982e-17
xbgr.xsky130_asc_res_xhigh_po_2p85_1_11.x0.xsky130_fd_pr__res_xhigh_po_2p85.ra    -3.23063e-17
xbgr.sky130_asc_res_xhigh_po_2p85_1_11/rin     -3.2393e-17
xbgr.xsky130_asc_res_xhigh_po_2p85_1_11.x1.xsky130_fd_pr__res_xhigh_po_2p85.ra    -2.47768e-17
xbgr.xsky130_asc_res_xhigh_po_2p85_2_1.x0.t1    -4.33437e-20
xbgr.xsky130_asc_res_xhigh_po_2p85_2_1.x0.t2     -7.0499e-18
xbgr.xsky130_asc_res_xhigh_po_2p85_2_1.x1.t1    -1.26974e-17
xbgr.xsky130_asc_res_xhigh_po_2p85_2_1.x1.t2    -7.13173e-18
xbgr.xsky130_asc_res_xhigh_po_2p85_1_12.x0.xsky130_fd_pr__res_xhigh_po_2p85.ra    -4.04627e-17
xbgr.sky130_asc_res_xhigh_po_2p85_1_12/rin    -4.05555e-17
xbgr.xsky130_asc_res_xhigh_po_2p85_1_12.x1.xsky130_fd_pr__res_xhigh_po_2p85.ra     -3.2482e-17
xbgr.xsky130_asc_res_xhigh_po_2p85_1_23.x0.xsky130_fd_pr__res_xhigh_po_2p85.ra    -4.61984e-17
xbgr.sky130_asc_res_xhigh_po_2p85_1_23/rin    -4.63236e-17
xbgr.xsky130_asc_res_xhigh_po_2p85_1_23.x1.xsky130_fd_pr__res_xhigh_po_2p85.ra    -3.52182e-17
xbgr.xsky130_asc_res_xhigh_po_2p85_1_13.x0.xsky130_fd_pr__res_xhigh_po_2p85.ra    -4.95635e-17
xbgr.sky130_asc_res_xhigh_po_2p85_1_13/rin    -4.96683e-17
xbgr.xsky130_asc_res_xhigh_po_2p85_1_13.x1.xsky130_fd_pr__res_xhigh_po_2p85.ra    -4.06537e-17
xbgr.xsky130_asc_res_xhigh_po_2p85_1_24.x0.xsky130_fd_pr__res_xhigh_po_2p85.ra    -5.74182e-17
xbgr.sky130_asc_res_xhigh_po_2p85_1_24/rin    -5.75433e-17
xbgr.xsky130_asc_res_xhigh_po_2p85_1_24.x1.xsky130_fd_pr__res_xhigh_po_2p85.ra    -4.64485e-17
xbgr.xsky130_asc_res_xhigh_po_2p85_1_25.x0.xsky130_fd_pr__res_xhigh_po_2p85.ra    -6.86352e-17
xbgr.sky130_asc_res_xhigh_po_2p85_1_25/rin    -6.87601e-17
xbgr.xsky130_asc_res_xhigh_po_2p85_1_25.x1.xsky130_fd_pr__res_xhigh_po_2p85.ra    -5.76682e-17
xbgr.xsky130_asc_res_xhigh_po_2p85_1_14.x0.xsky130_fd_pr__res_xhigh_po_2p85.ra    -6.03768e-17
xbgr.sky130_asc_res_xhigh_po_2p85_1_14/rin     -6.0503e-17
xbgr.xsky130_asc_res_xhigh_po_2p85_1_14.x1.xsky130_fd_pr__res_xhigh_po_2p85.ra    -4.97834e-17
xbgr.sky130_asc_nfet_01v8_lvt_1_1/gate     3.04122e-16
xbgr.xsky130_asc_res_xhigh_po_2p85_1_15.x0.xsky130_fd_pr__res_xhigh_po_2p85.ra    -7.36008e-17
xbgr.sky130_asc_res_xhigh_po_2p85_1_15/rin    -7.37559e-17
xbgr.xsky130_asc_res_xhigh_po_2p85_1_15.x1.xsky130_fd_pr__res_xhigh_po_2p85.ra    -6.06432e-17
xbgr.xsky130_asc_res_xhigh_po_2p85_1_26.x0.xsky130_fd_pr__res_xhigh_po_2p85.ra     -8.0028e-17
xbgr.sky130_asc_res_xhigh_po_2p85_1_26/rin     -8.0155e-17
xbgr.xsky130_asc_res_xhigh_po_2p85_1_26.x1.xsky130_fd_pr__res_xhigh_po_2p85.ra     -6.8887e-17
xbgr.xsky130_asc_res_xhigh_po_2p85_1_16.x0.xsky130_fd_pr__res_xhigh_po_2p85.ra    -8.96699e-17
xbgr.sky130_asc_res_xhigh_po_2p85_1_18/rin    -8.98562e-17
xbgr.xsky130_asc_res_xhigh_po_2p85_1_16.x1.xsky130_fd_pr__res_xhigh_po_2p85.ra    -7.39282e-17
xbgr.xsky130_asc_res_xhigh_po_2p85_1_27.x0.xsky130_fd_pr__res_xhigh_po_2p85.ra    -9.14521e-17
xbgr.sky130_asc_res_xhigh_po_2p85_1_27/rin    -9.15794e-17
xbgr.xsky130_asc_res_xhigh_po_2p85_1_27.x1.xsky130_fd_pr__res_xhigh_po_2p85.ra    -8.02821e-17
xbgr.xsky130_asc_res_xhigh_po_2p85_1_28.x0.xsky130_fd_pr__res_xhigh_po_2p85.ra    -1.02986e-16
xbgr.sky130_asc_res_xhigh_po_2p85_1_28/rin    -1.03115e-16
xbgr.xsky130_asc_res_xhigh_po_2p85_1_28.x1.xsky130_fd_pr__res_xhigh_po_2p85.ra    -9.17078e-17
xbgr.xsky130_asc_res_xhigh_po_2p85_1_17.x0.xsky130_fd_pr__res_xhigh_po_2p85.ra    -1.07531e-16
xbgr.sky130_asc_res_xhigh_po_2p85_1_17/rin    -1.07365e-16
xbgr.xsky130_asc_res_xhigh_po_2p85_1_17.x1.xsky130_fd_pr__res_xhigh_po_2p85.ra    -1.19209e-16
porst                                        0
xbgr.xsky130_asc_res_xhigh_po_2p85_1_18.x0.xsky130_fd_pr__res_xhigh_po_2p85.ra    -9.00532e-17
xbgr.xsky130_asc_res_xhigh_po_2p85_1_18.x1.xsky130_fd_pr__res_xhigh_po_2p85.ra    -1.07172e-16
xbgr.xsky130_asc_res_xhigh_po_2p85_1_29.x0.xsky130_fd_pr__res_xhigh_po_2p85.ra    -1.14565e-16
xbgr.xsky130_asc_res_xhigh_po_2p85_1_29.x1.xsky130_fd_pr__res_xhigh_po_2p85.ra    -1.03244e-16
xbgr.sky130_asc_pfet_01v8_lvt_6_1/gate     3.90481e-15
xbgr.sky130_asc_nfet_01v8_lvt_1_1/drain     6.06658e-17
xbgr.xsky130_asc_res_xhigh_po_2p85_1_19.x0.xsky130_fd_pr__res_xhigh_po_2p85.ra    -1.06664e-16
xbgr.xsky130_asc_res_xhigh_po_2p85_1_19.x1.xsky130_fd_pr__res_xhigh_po_2p85.ra     -8.6962e-17
xbgr.xsky130_asc_cap_mim_m3_1_0.x0.a    -1.65138e-22
xbgr.xsky130_asc_cap_mim_m3_1_0.x0.b1    -1.41454e-22
xbgr.xsky130_asc_cap_mim_m3_1_0.x1.a    -1.65138e-22
xbgr.xsky130_asc_cap_mim_m3_1_0.x1.b1    -1.41454e-22
xbgr.xsky130_asc_cap_mim_m3_1_0.x2.a    -1.65138e-22
xbgr.xsky130_asc_cap_mim_m3_1_0.x2.b1    -1.41454e-22
xbgr.xsky130_asc_cap_mim_m3_1_0.x3.a    -1.65138e-22
xbgr.xsky130_asc_cap_mim_m3_1_0.x3.b1    -1.41454e-22
[...]
xbgr.xsky130_asc_cap_mim_m3_1_1.x16.a    -1.12308e-23
xbgr.xsky130_asc_cap_mim_m3_1_1.x16.b1    -9.62004e-24
xbgr.xsky130_asc_cap_mim_m3_1_1.x17.a    -1.12308e-23
xbgr.xsky130_asc_cap_mim_m3_1_1.x17.b1    -9.62004e-24
xbgr.xsky130_asc_cap_mim_m3_1_1.x18.a    -1.12308e-23
xbgr.xsky130_asc_cap_mim_m3_1_1.x18.b1    -9.62004e-24
xbgr.xsky130_asc_cap_mim_m3_1_1.x19.a    -1.12308e-23
xbgr.xsky130_asc_cap_mim_m3_1_1.x19.b1    -9.62004e-24
xbgr.xsky130_asc_cap_mim_m3_1_2.x0.a    -1.12308e-23
xbgr.xsky130_asc_cap_mim_m3_1_2.x0.b1    -9.62004e-24
xbgr.xsky130_asc_cap_mim_m3_1_2.x1.a    -1.12308e-23
xbgr.xsky130_asc_cap_mim_m3_1_2.x1.b1    -9.62004e-24
xbgr.xsky130_asc_cap_mim_m3_1_2.x2.a    -1.12308e-23
xbgr.xsky130_asc_cap_mim_m3_1_2.x2.b1    -9.62004e-24
xbgr.xsky130_asc_cap_mim_m3_1_2.x3.a    -1.12308e-23
xbgr.xsky130_asc_cap_mim_m3_1_2.x3.b1    -9.62004e-24
xbgr.xsky130_asc_cap_mim_m3_1_2.x4.a    -1.12308e-23
xbgr.xsky130_asc_cap_mim_m3_1_2.x4.b1    -9.62004e-24
xbgr.xsky130_asc_cap_mim_m3_1_2.x5.a    -1.12308e-23
xbgr.xsky130_asc_cap_mim_m3_1_2.x5.b1    -9.62004e-24
xbgr.xsky130_asc_cap_mim_m3_1_2.x6.a    -1.12308e-23
xbgr.xsky130_asc_cap_mim_m3_1_2.x6.b1    -9.62004e-24
xbgr.xsky130_asc_cap_mim_m3_1_2.x7.a    -1.12308e-23
xbgr.xsky130_asc_cap_mim_m3_1_2.x7.b1    -9.62004e-24
xbgr.xsky130_asc_cap_mim_m3_1_2.x8.a    -1.12308e-23
xbgr.xsky130_asc_cap_mim_m3_1_2.x8.b1    -9.62004e-24
xbgr.xsky130_asc_cap_mim_m3_1_2.x9.a    -1.12308e-23
xbgr.xsky130_asc_cap_mim_m3_1_2.x9.b1    -9.62004e-24
xbgr.xsky130_asc_cap_mim_m3_1_2.x10.a    -1.12308e-23
xbgr.xsky130_asc_cap_mim_m3_1_2.x10.b1    -9.62004e-24
xbgr.xsky130_asc_cap_mim_m3_1_2.x11.a    -1.12308e-23
xbgr.xsky130_asc_cap_mim_m3_1_2.x11.b1    -9.62004e-24
xbgr.xsky130_asc_cap_mim_m3_1_2.x12.a    -1.12308e-23
xbgr.xsky130_asc_cap_mim_m3_1_2.x12.b1    -9.62004e-24
xbgr.xsky130_asc_cap_mim_m3_1_2.x13.a    -1.12308e-23
xbgr.xsky130_asc_cap_mim_m3_1_2.x13.b1    -9.62004e-24
xbgr.xsky130_asc_cap_mim_m3_1_2.x14.a    -1.12308e-23
xbgr.xsky130_asc_cap_mim_m3_1_2.x14.b1    -9.62004e-24
xbgr.xsky130_asc_cap_mim_m3_1_2.x15.a    -1.12308e-23
xbgr.xsky130_asc_cap_mim_m3_1_2.x15.b1    -9.62004e-24
xbgr.xsky130_asc_cap_mim_m3_1_2.x16.a    -1.12308e-23
xbgr.xsky130_asc_cap_mim_m3_1_2.x16.b1    -9.62004e-24
xbgr.xsky130_asc_cap_mim_m3_1_2.x17.a    -1.12308e-23
xbgr.xsky130_asc_cap_mim_m3_1_2.x17.b1    -9.62004e-24
xbgr.xsky130_asc_cap_mim_m3_1_2.x18.a    -1.12308e-23
xbgr.xsky130_asc_cap_mim_m3_1_2.x18.b1    -9.62004e-24
xbgr.xsky130_asc_cap_mim_m3_1_2.x19.a    -1.12308e-23
xbgr.xsky130_asc_cap_mim_m3_1_2.x19.b1    -9.62004e-24
xbgr.xsky130_asc_cap_mim_m3_1_3.x0.a    -1.12308e-23
xbgr.xsky130_asc_cap_mim_m3_1_3.x0.b1    -9.62004e-24
xbgr.xsky130_asc_cap_mim_m3_1_3.x1.a    -1.12308e-23
xbgr.xsky130_asc_cap_mim_m3_1_3.x1.b1    -9.62004e-24
xbgr.xsky130_asc_cap_mim_m3_1_3.x2.a    -1.12308e-23
xbgr.xsky130_asc_cap_mim_m3_1_3.x2.b1    -9.62004e-24
xbgr.xsky130_asc_cap_mim_m3_1_3.x3.a    -1.12308e-23
xbgr.xsky130_asc_cap_mim_m3_1_3.x3.b1    -9.62004e-24
xbgr.xsky130_asc_cap_mim_m3_1_3.x4.a    -1.12308e-23
xbgr.xsky130_asc_cap_mim_m3_1_3.x4.b1    -9.62004e-24
xbgr.xsky130_asc_cap_mim_m3_1_3.x5.a    -1.12308e-23
xbgr.xsky130_asc_cap_mim_m3_1_3.x5.b1    -9.62004e-24
xbgr.xsky130_asc_cap_mim_m3_1_3.x6.a    -1.12308e-23
xbgr.xsky130_asc_cap_mim_m3_1_3.x6.b1    -9.62004e-24
xbgr.xsky130_asc_cap_mim_m3_1_3.x7.a    -1.12308e-23
xbgr.xsky130_asc_cap_mim_m3_1_3.x7.b1    -9.62004e-24
xbgr.xsky130_asc_cap_mim_m3_1_3.x8.a    -1.12308e-23
xbgr.xsky130_asc_cap_mim_m3_1_3.x8.b1    -9.62004e-24
xbgr.xsky130_asc_cap_mim_m3_1_3.x9.a    -1.12308e-23
xbgr.xsky130_asc_cap_mim_m3_1_3.x9.b1    -9.62004e-24
xbgr.xsky130_asc_cap_mim_m3_1_3.x10.a    -1.12308e-23
xbgr.xsky130_asc_cap_mim_m3_1_3.x10.b1    -9.62004e-24
xbgr.xsky130_asc_cap_mim_m3_1_3.x11.a    -1.12308e-23
xbgr.xsky130_asc_cap_mim_m3_1_3.x11.b1    -9.62004e-24
xbgr.xsky130_asc_cap_mim_m3_1_3.x12.a    -1.12308e-23
xbgr.xsky130_asc_cap_mim_m3_1_3.x12.b1    -9.62004e-24
xbgr.xsky130_asc_cap_mim_m3_1_3.x13.a    -1.12308e-23
xbgr.xsky130_asc_cap_mim_m3_1_3.x13.b1    -9.62004e-24
xbgr.xsky130_asc_cap_mim_m3_1_3.x14.a    -1.12308e-23
xbgr.xsky130_asc_cap_mim_m3_1_3.x14.b1    -9.62004e-24
xbgr.xsky130_asc_cap_mim_m3_1_3.x15.a    -1.12308e-23
xbgr.xsky130_asc_cap_mim_m3_1_3.x15.b1    -9.62004e-24
xbgr.xsky130_asc_cap_mim_m3_1_3.x16.a    -1.12308e-23
xbgr.xsky130_asc_cap_mim_m3_1_3.x16.b1    -9.62004e-24
xbgr.xsky130_asc_cap_mim_m3_1_3.x17.a    -1.12308e-23
xbgr.xsky130_asc_cap_mim_m3_1_3.x17.b1    -9.62004e-24
xbgr.xsky130_asc_cap_mim_m3_1_3.x18.a    -1.12308e-23
xbgr.xsky130_asc_cap_mim_m3_1_3.x18.b1    -9.62004e-24
xbgr.xsky130_asc_cap_mim_m3_1_3.x19.a    -1.12308e-23
xbgr.xsky130_asc_cap_mim_m3_1_3.x19.b1    -9.62004e-24
xbgr.xsky130_asc_cap_mim_m3_1_4.x0.a    -1.12308e-23
xbgr.xsky130_asc_cap_mim_m3_1_4.x0.b1    -9.62004e-24
xbgr.xsky130_asc_cap_mim_m3_1_4.x1.a    -1.12308e-23
xbgr.xsky130_asc_cap_mim_m3_1_4.x1.b1    -9.62004e-24
xbgr.xsky130_asc_cap_mim_m3_1_4.x2.a    -1.12308e-23
xbgr.xsky130_asc_cap_mim_m3_1_4.x2.b1    -9.62004e-24
xbgr.xsky130_asc_cap_mim_m3_1_4.x3.a    -1.12308e-23
xbgr.xsky130_asc_cap_mim_m3_1_4.x3.b1    -9.62004e-24
xbgr.xsky130_asc_cap_mim_m3_1_4.x4.a    -1.12308e-23
xbgr.xsky130_asc_cap_mim_m3_1_4.x4.b1    -9.62004e-24
xbgr.xsky130_asc_cap_mim_m3_1_4.x5.a    -1.12308e-23
xbgr.xsky130_asc_cap_mim_m3_1_4.x5.b1    -9.62004e-24
xbgr.xsky130_asc_cap_mim_m3_1_4.x6.a    -1.12308e-23
xbgr.xsky130_asc_cap_mim_m3_1_4.x6.b1    -9.62004e-24
xbgr.xsky130_asc_cap_mim_m3_1_4.x7.a    -1.12308e-23
xbgr.xsky130_asc_cap_mim_m3_1_4.x7.b1    -9.62004e-24
xbgr.xsky130_asc_cap_mim_m3_1_4.x8.a    -1.12308e-23
xbgr.xsky130_asc_cap_mim_m3_1_4.x8.b1    -9.62004e-24
xbgr.xsky130_asc_cap_mim_m3_1_4.x9.a    -1.12308e-23
xbgr.xsky130_asc_cap_mim_m3_1_4.x9.b1    -9.62004e-24
xbgr.xsky130_asc_cap_mim_m3_1_4.x10.a    -1.12308e-23
xbgr.xsky130_asc_cap_mim_m3_1_4.x10.b1    -9.62004e-24
xbgr.xsky130_asc_cap_mim_m3_1_4.x11.a    -1.12308e-23
xbgr.xsky130_asc_cap_mim_m3_1_4.x11.b1    -9.62004e-24
xbgr.xsky130_asc_cap_mim_m3_1_4.x12.a    -1.12308e-23
xbgr.xsky130_asc_cap_mim_m3_1_4.x12.b1    -9.62004e-24
xbgr.xsky130_asc_cap_mim_m3_1_4.x13.a    -1.12308e-23
xbgr.xsky130_asc_cap_mim_m3_1_4.x13.b1    -9.62004e-24
xbgr.xsky130_asc_cap_mim_m3_1_4.x14.a    -1.12308e-23
xbgr.xsky130_asc_cap_mim_m3_1_4.x14.b1    -9.62004e-24
xbgr.xsky130_asc_cap_mim_m3_1_4.x15.a    -1.12308e-23
xbgr.xsky130_asc_cap_mim_m3_1_4.x15.b1    -9.62004e-24
xbgr.xsky130_asc_cap_mim_m3_1_4.x16.a    -1.12308e-23
xbgr.xsky130_asc_cap_mim_m3_1_4.x16.b1    -9.62004e-24
xbgr.xsky130_asc_cap_mim_m3_1_4.x17.a    -1.12308e-23
xbgr.xsky130_asc_cap_mim_m3_1_4.x17.b1    -9.62004e-24
xbgr.xsky130_asc_cap_mim_m3_1_4.x18.a    -1.12308e-23
xbgr.xsky130_asc_cap_mim_m3_1_4.x18.b1    -9.62004e-24
xbgr.xsky130_asc_cap_mim_m3_1_4.x19.a    -1.12308e-23
xbgr.xsky130_asc_cap_mim_m3_1_4.x19.b1    -9.62004e-24
xbgr.xsky130_asc_cap_mim_m3_1_5.x0.a    -5.41533e-17
xbgr.xsky130_asc_cap_mim_m3_1_5.x0.b1    -5.41533e-17
xbgr.xsky130_asc_cap_mim_m3_1_5.x1.a    -5.41533e-17
xbgr.xsky130_asc_cap_mim_m3_1_5.x1.b1    -5.41533e-17
xbgr.xsky130_asc_cap_mim_m3_1_5.x2.a    -5.41533e-17
xbgr.xsky130_asc_cap_mim_m3_1_5.x2.b1    -5.41533e-17
xbgr.xsky130_asc_cap_mim_m3_1_5.x3.a    -5.41533e-17
xbgr.xsky130_asc_cap_mim_m3_1_5.x3.b1    -5.41533e-17
xbgr.xsky130_asc_cap_mim_m3_1_5.x4.a    -5.41533e-17
xbgr.xsky130_asc_cap_mim_m3_1_5.x4.b1    -5.41533e-17
xbgr.xsky130_asc_cap_mim_m3_1_5.x5.a    -5.41533e-17
xbgr.xsky130_asc_cap_mim_m3_1_5.x5.b1    -5.41533e-17
xbgr.xsky130_asc_cap_mim_m3_1_5.x6.a    -5.41533e-17
xbgr.xsky130_asc_cap_mim_m3_1_5.x6.b1    -5.41533e-17
xbgr.xsky130_asc_cap_mim_m3_1_5.x7.a    -5.41533e-17
xbgr.xsky130_asc_cap_mim_m3_1_5.x7.b1    -5.41533e-17
xbgr.xsky130_asc_cap_mim_m3_1_5.x8.a    -5.41533e-17
xbgr.xsky130_asc_cap_mim_m3_1_5.x8.b1    -5.41533e-17
xbgr.xsky130_asc_cap_mim_m3_1_5.x9.a    -5.41533e-17
xbgr.xsky130_asc_cap_mim_m3_1_5.x9.b1    -5.41533e-17
xbgr.xsky130_asc_cap_mim_m3_1_5.x10.a    -5.41533e-17
xbgr.xsky130_asc_cap_mim_m3_1_5.x10.b1    -5.41533e-17
xbgr.xsky130_asc_cap_mim_m3_1_5.x11.a    -5.41533e-17
xbgr.xsky130_asc_cap_mim_m3_1_5.x11.b1    -5.41533e-17
xbgr.xsky130_asc_cap_mim_m3_1_5.x12.a    -5.41533e-17
xbgr.xsky130_asc_cap_mim_m3_1_5.x12.b1    -5.41533e-17
xbgr.xsky130_asc_cap_mim_m3_1_5.x13.a    -5.41533e-17
xbgr.xsky130_asc_cap_mim_m3_1_5.x13.b1    -5.41533e-17
xbgr.xsky130_asc_cap_mim_m3_1_5.x14.a    -5.41533e-17
xbgr.xsky130_asc_cap_mim_m3_1_5.x14.b1    -5.41533e-17
xbgr.xsky130_asc_cap_mim_m3_1_5.x15.a    -5.41533e-17
xbgr.xsky130_asc_cap_mim_m3_1_5.x15.b1    -5.41533e-17
xbgr.xsky130_asc_cap_mim_m3_1_5.x16.a    -5.41533e-17
xbgr.xsky130_asc_cap_mim_m3_1_5.x16.b1    -5.41533e-17
xbgr.xsky130_asc_cap_mim_m3_1_5.x17.a    -5.41533e-17
xbgr.xsky130_asc_cap_mim_m3_1_5.x17.b1    -5.41533e-17
xbgr.xsky130_asc_cap_mim_m3_1_5.x18.a    -5.41533e-17
xbgr.xsky130_asc_cap_mim_m3_1_5.x18.b1    -5.41533e-17
xbgr.xsky130_asc_cap_mim_m3_1_5.x19.a    -5.41533e-17
xbgr.xsky130_asc_cap_mim_m3_1_5.x19.b1    -5.41533e-17
xbgr.xsky130_asc_cap_mim_m3_1_6.x0.a    -5.41533e-17
xbgr.xsky130_asc_cap_mim_m3_1_6.x0.b1    -5.41533e-17
xbgr.xsky130_asc_cap_mim_m3_1_6.x1.a    -5.41533e-17
xbgr.xsky130_asc_cap_mim_m3_1_6.x1.b1    -5.41533e-17
xbgr.xsky130_asc_cap_mim_m3_1_6.x2.a    -5.41533e-17
xbgr.xsky130_asc_cap_mim_m3_1_6.x2.b1    -5.41533e-17
xbgr.xsky130_asc_cap_mim_m3_1_6.x3.a    -5.41533e-17
xbgr.xsky130_asc_cap_mim_m3_1_6.x3.b1    -5.41533e-17
xbgr.xsky130_asc_cap_mim_m3_1_6.x4.a    -5.41533e-17
xbgr.xsky130_asc_cap_mim_m3_1_6.x4.b1    -5.41533e-17
xbgr.xsky130_asc_cap_mim_m3_1_6.x5.a    -5.41533e-17
xbgr.xsky130_asc_cap_mim_m3_1_6.x5.b1    -5.41533e-17
xbgr.xsky130_asc_cap_mim_m3_1_6.x6.a    -5.41533e-17
xbgr.xsky130_asc_cap_mim_m3_1_6.x6.b1    -5.41533e-17
xbgr.xsky130_asc_cap_mim_m3_1_6.x7.a    -5.41533e-17
xbgr.xsky130_asc_cap_mim_m3_1_6.x7.b1    -5.41533e-17
xbgr.xsky130_asc_cap_mim_m3_1_6.x8.a    -5.41533e-17
xbgr.xsky130_asc_cap_mim_m3_1_6.x8.b1    -5.41533e-17
xbgr.xsky130_asc_cap_mim_m3_1_6.x9.a    -5.41533e-17
xbgr.xsky130_asc_cap_mim_m3_1_6.x9.b1    -5.41533e-17
xbgr.xsky130_asc_cap_mim_m3_1_6.x10.a    -5.41533e-17
xbgr.xsky130_asc_cap_mim_m3_1_6.x10.b1    -5.41533e-17
xbgr.xsky130_asc_cap_mim_m3_1_6.x11.a    -5.41533e-17
xbgr.xsky130_asc_cap_mim_m3_1_6.x11.b1    -5.41533e-17
xbgr.xsky130_asc_cap_mim_m3_1_6.x12.a    -5.41533e-17
xbgr.xsky130_asc_cap_mim_m3_1_6.x12.b1    -5.41533e-17
xbgr.xsky130_asc_cap_mim_m3_1_6.x13.a    -5.41533e-17
xbgr.xsky130_asc_cap_mim_m3_1_6.x13.b1    -5.41533e-17
xbgr.xsky130_asc_cap_mim_m3_1_6.x14.a    -5.41533e-17
xbgr.xsky130_asc_cap_mim_m3_1_6.x14.b1    -5.41533e-17
xbgr.xsky130_asc_cap_mim_m3_1_6.x15.a    -5.41533e-17
xbgr.xsky130_asc_cap_mim_m3_1_6.x15.b1    -5.41533e-17
xbgr.xsky130_asc_cap_mim_m3_1_6.x16.a    -5.41533e-17
xbgr.xsky130_asc_cap_mim_m3_1_6.x16.b1    -5.41533e-17
xbgr.xsky130_asc_cap_mim_m3_1_6.x17.a    -5.41533e-17
xbgr.xsky130_asc_cap_mim_m3_1_6.x17.b1    -5.41533e-17
xbgr.xsky130_asc_cap_mim_m3_1_6.x18.a    -5.41533e-17
xbgr.xsky130_asc_cap_mim_m3_1_6.x18.b1    -5.41533e-17
xbgr.xsky130_asc_cap_mim_m3_1_6.x19.a    -5.41533e-17
xbgr.xsky130_asc_cap_mim_m3_1_6.x19.b1    -5.41533e-17
xbgr.xsky130_asc_res_xhigh_po_2p85_1_0.x0.xsky130_fd_pr__res_xhigh_po_2p85.ra     -2.1205e-17
xbgr.sky130_asc_res_xhigh_po_2p85_1_0/rin    -2.14438e-17
xbgr.xsky130_asc_res_xhigh_po_2p85_1_0.x1.xsky130_fd_pr__res_xhigh_po_2p85.ra    -2.38829e-19
xbgr.xsky130_asc_res_xhigh_po_2p85_1_1.x0.xsky130_fd_pr__res_xhigh_po_2p85.ra    -4.25551e-17
xbgr.sky130_asc_res_xhigh_po_2p85_1_1/rin    -4.27927e-17
xbgr.xsky130_asc_res_xhigh_po_2p85_1_1.x1.xsky130_fd_pr__res_xhigh_po_2p85.ra    -2.16817e-17
xbgr.xsky130_asc_cap_mim_m3_1_7.x0.a    -5.41533e-17
xbgr.xsky130_asc_cap_mim_m3_1_7.x0.b1    -5.41533e-17
xbgr.xsky130_asc_cap_mim_m3_1_7.x1.a    -5.41533e-17
xbgr.xsky130_asc_cap_mim_m3_1_7.x1.b1    -5.41533e-17
xbgr.xsky130_asc_cap_mim_m3_1_7.x2.a    -5.41533e-17
xbgr.xsky130_asc_cap_mim_m3_1_7.x2.b1    -5.41533e-17
xbgr.xsky130_asc_cap_mim_m3_1_7.x3.a    -5.41533e-17
xbgr.xsky130_asc_cap_mim_m3_1_7.x3.b1    -5.41533e-17
xbgr.xsky130_asc_cap_mim_m3_1_7.x4.a    -5.41533e-17
xbgr.xsky130_asc_cap_mim_m3_1_7.x4.b1    -5.41533e-17
xbgr.xsky130_asc_cap_mim_m3_1_7.x5.a    -5.41533e-17
xbgr.xsky130_asc_cap_mim_m3_1_7.x5.b1    -5.41533e-17
xbgr.xsky130_asc_cap_mim_m3_1_7.x6.a    -5.41533e-17
xbgr.xsky130_asc_cap_mim_m3_1_7.x6.b1    -5.41533e-17
xbgr.xsky130_asc_cap_mim_m3_1_7.x7.a    -5.41533e-17
xbgr.xsky130_asc_cap_mim_m3_1_7.x7.b1    -5.41533e-17
xbgr.xsky130_asc_cap_mim_m3_1_7.x8.a    -5.41533e-17
xbgr.xsky130_asc_cap_mim_m3_1_7.x8.b1    -5.41533e-17
xbgr.xsky130_asc_cap_mim_m3_1_7.x9.a    -5.41533e-17
xbgr.xsky130_asc_cap_mim_m3_1_7.x9.b1    -5.41533e-17
xbgr.xsky130_asc_cap_mim_m3_1_7.x10.a    -5.41533e-17
xbgr.xsky130_asc_cap_mim_m3_1_7.x10.b1    -5.41533e-17
xbgr.xsky130_asc_cap_mim_m3_1_7.x11.a    -5.41533e-17
xbgr.xsky130_asc_cap_mim_m3_1_7.x11.b1    -5.41533e-17
xbgr.xsky130_asc_cap_mim_m3_1_7.x12.a    -5.41533e-17
xbgr.xsky130_asc_cap_mim_m3_1_7.x12.b1    -5.41533e-17
xbgr.xsky130_asc_cap_mim_m3_1_7.x13.a    -5.41533e-17
xbgr.xsky130_asc_cap_mim_m3_1_7.x13.b1    -5.41533e-17
xbgr.xsky130_asc_cap_mim_m3_1_7.x14.a    -5.41533e-17
xbgr.xsky130_asc_cap_mim_m3_1_7.x14.b1    -5.41533e-17
xbgr.xsky130_asc_cap_mim_m3_1_7.x15.a    -5.41533e-17
xbgr.xsky130_asc_cap_mim_m3_1_7.x15.b1    -5.41533e-17
xbgr.xsky130_asc_cap_mim_m3_1_7.x16.a    -5.41533e-17
xbgr.xsky130_asc_cap_mim_m3_1_7.x16.b1    -5.41533e-17
xbgr.xsky130_asc_cap_mim_m3_1_7.x17.a    -5.41533e-17
xbgr.xsky130_asc_cap_mim_m3_1_7.x17.b1    -5.41533e-17
xbgr.xsky130_asc_cap_mim_m3_1_7.x18.a    -5.41533e-17
xbgr.xsky130_asc_cap_mim_m3_1_7.x18.b1    -5.41533e-17
xbgr.xsky130_asc_cap_mim_m3_1_7.x19.a    -5.41533e-17
xbgr.xsky130_asc_cap_mim_m3_1_7.x19.b1    -5.41533e-17
xbgr.xsky130_asc_cap_mim_m3_1_8.x0.a    -5.41533e-17
xbgr.xsky130_asc_cap_mim_m3_1_8.x0.b1    -5.41533e-17
xbgr.xsky130_asc_cap_mim_m3_1_8.x1.a    -5.41533e-17
xbgr.xsky130_asc_cap_mim_m3_1_8.x1.b1    -5.41533e-17
xbgr.xsky130_asc_cap_mim_m3_1_8.x2.a    -5.41533e-17
xbgr.xsky130_asc_cap_mim_m3_1_8.x2.b1    -5.41533e-17
xbgr.xsky130_asc_cap_mim_m3_1_8.x3.a    -5.41533e-17
xbgr.xsky130_asc_cap_mim_m3_1_8.x3.b1    -5.41533e-17
xbgr.xsky130_asc_cap_mim_m3_1_8.x4.a    -5.41533e-17
xbgr.xsky130_asc_cap_mim_m3_1_8.x4.b1    -5.41533e-17
xbgr.xsky130_asc_cap_mim_m3_1_8.x5.a    -5.41533e-17
xbgr.xsky130_asc_cap_mim_m3_1_8.x5.b1    -5.41533e-17
xbgr.xsky130_asc_cap_mim_m3_1_8.x6.a    -5.41533e-17
xbgr.xsky130_asc_cap_mim_m3_1_8.x6.b1    -5.41533e-17
xbgr.xsky130_asc_cap_mim_m3_1_8.x7.a    -5.41533e-17
xbgr.xsky130_asc_cap_mim_m3_1_8.x7.b1    -5.41533e-17
xbgr.xsky130_asc_cap_mim_m3_1_8.x8.a    -5.41533e-17
xbgr.xsky130_asc_cap_mim_m3_1_8.x8.b1    -5.41533e-17
xbgr.xsky130_asc_cap_mim_m3_1_8.x9.a    -5.41533e-17
xbgr.xsky130_asc_cap_mim_m3_1_8.x9.b1    -5.41533e-17
xbgr.xsky130_asc_cap_mim_m3_1_8.x10.a    -5.41533e-17
xbgr.xsky130_asc_cap_mim_m3_1_8.x10.b1    -5.41533e-17
xbgr.xsky130_asc_cap_mim_m3_1_8.x11.a    -5.41533e-17
xbgr.xsky130_asc_cap_mim_m3_1_8.x11.b1    -5.41533e-17
xbgr.xsky130_asc_cap_mim_m3_1_8.x12.a    -5.41533e-17
xbgr.xsky130_asc_cap_mim_m3_1_8.x12.b1    -5.41533e-17
xbgr.xsky130_asc_cap_mim_m3_1_8.x13.a    -5.41533e-17
xbgr.xsky130_asc_cap_mim_m3_1_8.x13.b1    -5.41533e-17
xbgr.xsky130_asc_cap_mim_m3_1_8.x14.a    -5.41533e-17
xbgr.xsky130_asc_cap_mim_m3_1_8.x14.b1    -5.41533e-17
xbgr.xsky130_asc_cap_mim_m3_1_8.x15.a    -5.41533e-17
xbgr.xsky130_asc_cap_mim_m3_1_8.x15.b1    -5.41533e-17
xbgr.xsky130_asc_cap_mim_m3_1_8.x16.a    -5.41533e-17
xbgr.xsky130_asc_cap_mim_m3_1_8.x16.b1    -5.41533e-17
xbgr.xsky130_asc_cap_mim_m3_1_8.x17.a    -5.41533e-17
xbgr.xsky130_asc_cap_mim_m3_1_8.x17.b1    -5.41533e-17
xbgr.xsky130_asc_cap_mim_m3_1_8.x18.a    -5.41533e-17
xbgr.xsky130_asc_cap_mim_m3_1_8.x18.b1    -5.41533e-17
xbgr.xsky130_asc_cap_mim_m3_1_8.x19.a    -5.41533e-17
xbgr.xsky130_asc_cap_mim_m3_1_8.x19.b1    -5.41533e-17
xbgr.xsky130_asc_res_xhigh_po_2p85_1_2.x0.xsky130_fd_pr__res_xhigh_po_2p85.ra    -6.37816e-17
xbgr.sky130_asc_res_xhigh_po_2p85_1_2/rin    -6.40175e-17
xbgr.xsky130_asc_res_xhigh_po_2p85_1_2.x1.xsky130_fd_pr__res_xhigh_po_2p85.ra    -4.30296e-17
xbgr.xsky130_asc_res_xhigh_po_2p85_1_3.x0.xsky130_fd_pr__res_xhigh_po_2p85.ra    -8.47307e-17
xbgr.sky130_asc_res_xhigh_po_2p85_1_3/rin    -8.49631e-17
xbgr.xsky130_asc_res_xhigh_po_2p85_1_3.x1.xsky130_fd_pr__res_xhigh_po_2p85.ra    -6.42518e-17
xbgr.xsky130_asc_cap_mim_m3_1_9.x0.a    -5.41533e-17
xbgr.xsky130_asc_cap_mim_m3_1_9.x0.b1    -5.41533e-17
xbgr.xsky130_asc_cap_mim_m3_1_9.x1.a    -5.41533e-17
xbgr.xsky130_asc_cap_mim_m3_1_9.x1.b1    -5.41533e-17
xbgr.xsky130_asc_cap_mim_m3_1_9.x2.a    -5.41533e-17
xbgr.xsky130_asc_cap_mim_m3_1_9.x2.b1    -5.41533e-17
xbgr.xsky130_asc_cap_mim_m3_1_9.x3.a    -5.41533e-17
xbgr.xsky130_asc_cap_mim_m3_1_9.x3.b1    -5.41533e-17
xbgr.xsky130_asc_cap_mim_m3_1_9.x4.a    -5.41533e-17
xbgr.xsky130_asc_cap_mim_m3_1_9.x4.b1    -5.41533e-17
xbgr.xsky130_asc_cap_mim_m3_1_9.x5.a    -5.41533e-17
xbgr.xsky130_asc_cap_mim_m3_1_9.x5.b1    -5.41533e-17
xbgr.xsky130_asc_cap_mim_m3_1_9.x6.a    -5.41533e-17
xbgr.xsky130_asc_cap_mim_m3_1_9.x6.b1    -5.41533e-17
xbgr.xsky130_asc_cap_mim_m3_1_9.x7.a    -5.41533e-17
xbgr.xsky130_asc_cap_mim_m3_1_9.x7.b1    -5.41533e-17
xbgr.xsky130_asc_cap_mim_m3_1_9.x8.a    -5.41533e-17
xbgr.xsky130_asc_cap_mim_m3_1_9.x8.b1    -5.41533e-17
xbgr.xsky130_asc_cap_mim_m3_1_9.x9.a    -5.41533e-17
xbgr.xsky130_asc_cap_mim_m3_1_9.x9.b1    -5.41533e-17
xbgr.xsky130_asc_cap_mim_m3_1_9.x10.a    -5.41533e-17
xbgr.xsky130_asc_cap_mim_m3_1_9.x10.b1    -5.41533e-17
xbgr.xsky130_asc_cap_mim_m3_1_9.x11.a    -5.41533e-17
xbgr.xsky130_asc_cap_mim_m3_1_9.x11.b1    -5.41533e-17
xbgr.xsky130_asc_cap_mim_m3_1_9.x12.a    -5.41533e-17
xbgr.xsky130_asc_cap_mim_m3_1_9.x12.b1    -5.41533e-17
xbgr.xsky130_asc_cap_mim_m3_1_9.x13.a    -5.41533e-17
xbgr.xsky130_asc_cap_mim_m3_1_9.x13.b1    -5.41533e-17
xbgr.xsky130_asc_cap_mim_m3_1_9.x14.a    -5.41533e-17
xbgr.xsky130_asc_cap_mim_m3_1_9.x14.b1    -5.41533e-17
xbgr.xsky130_asc_cap_mim_m3_1_9.x15.a    -5.41533e-17
xbgr.xsky130_asc_cap_mim_m3_1_9.x15.b1    -5.41533e-17
xbgr.xsky130_asc_cap_mim_m3_1_9.x16.a    -5.41533e-17
xbgr.xsky130_asc_cap_mim_m3_1_9.x16.b1    -5.41533e-17
xbgr.xsky130_asc_cap_mim_m3_1_9.x17.a    -5.41533e-17
xbgr.xsky130_asc_cap_mim_m3_1_9.x17.b1    -5.41533e-17
xbgr.xsky130_asc_cap_mim_m3_1_9.x18.a    -5.41533e-17
xbgr.xsky130_asc_cap_mim_m3_1_9.x18.b1    -5.41533e-17
xbgr.xsky130_asc_cap_mim_m3_1_9.x19.a    -5.41533e-17
xbgr.xsky130_asc_cap_mim_m3_1_9.x19.b1    -5.41533e-17
xbgr.xsky130_asc_res_xhigh_po_2p85_1_4.x0.xsky130_fd_pr__res_xhigh_po_2p85.ra    -1.05194e-16
xbgr.sky130_asc_res_xhigh_po_2p85_1_4/rin     -1.0542e-16
xbgr.xsky130_asc_res_xhigh_po_2p85_1_4.x1.xsky130_fd_pr__res_xhigh_po_2p85.ra    -8.51922e-17
xbgr.xsky130_asc_res_xhigh_po_2p85_1_5.x0.xsky130_fd_pr__res_xhigh_po_2p85.ra    -1.25333e-16
xbgr.sky130_asc_res_xhigh_po_2p85_1_5/rin    -1.25558e-16
xbgr.xsky130_asc_res_xhigh_po_2p85_1_5.x1.xsky130_fd_pr__res_xhigh_po_2p85.ra    -1.05645e-16
xbgr.xsky130_asc_res_xhigh_po_2p85_1_6.x0.xsky130_fd_pr__res_xhigh_po_2p85.ra    -1.46186e-16
xbgr.xsky130_asc_res_xhigh_po_2p85_1_6.x1.xsky130_fd_pr__res_xhigh_po_2p85.ra    -1.25784e-16
vgate                                        0
v2#branch                         -9.20675e-21
vq2#branch                                   0
vr1#branch                                   0
vm3#branch                                   0
vm2#branch                                   0
vm1#branch                                   0
vr2#branch                                   0
vr4#branch                                   0
v1#branch                         -4.28903e-20


No. of Data Rows : 3046
binary raw file "./sims/gen3_0/post_temp0_bandgap_real_tran_gauss326.raw"
ngspice-36 done
