
No compatibility mode selected!


Circuit: **.subckt tsmc_bandgap_real_tran_gauss

Doing analysis at TEMP = 0.000000 and TNOM = 27.000000

Warning: singular matrix:  check nodes vgate and vgate

Note: Starting dynamic gmin stepping
Trying gmin =   1.0000E-03 Note: One successful gmin step
Trying gmin =   1.0000E-04 Note: One successful gmin step
Trying gmin =   1.0000E-05 Note: One successful gmin step
Trying gmin =   1.0000E-06 Note: One successful gmin step
Trying gmin =   1.0000E-07 Note: One successful gmin step
Trying gmin =   1.0000E-08 Note: One successful gmin step
Trying gmin =   1.0000E-09 Note: One successful gmin step
Trying gmin =   1.0000E-10 Note: One successful gmin step
Trying gmin =   1.0000E-11 Note: One successful gmin step
Trying gmin =   1.0000E-12 Note: One successful gmin step
Trying gmin =   1.0000E-12 Note: One successful gmin step
Warning: singular matrix:  check nodes vgate and vgate

Warning: Dynamic gmin stepping failed
Note: Starting true gmin stepping
Trying gmin =   1.0000E-03 Warning: singular matrix:  check nodes vgate and vgate

Warning: Further gmin increment
Trying gmin =   5.6234E-03 Warning: singular matrix:  check nodes vgate and vgate

Warning: Further gmin increment
Trying gmin =   8.6596E-03 Warning: singular matrix:  check nodes vgate and vgate

Warning: Further gmin increment
Trying gmin =   9.6466E-03 Warning: singular matrix:  check nodes vgate and vgate

Warning: Further gmin increment
Trying gmin =   9.9105E-03 Warning: singular matrix:  check nodes vgate and vgate

Warning: Further gmin increment
Trying gmin =   9.9775E-03 Warning: singular matrix:  check nodes vgate and vgate

Warning: Further gmin increment
Trying gmin =   9.9944E-03 Warning: singular matrix:  check nodes vgate and vgate

Warning: Further gmin increment
Trying gmin =   9.9986E-03 Warning: singular matrix:  check nodes vgate and vgate

Warning: Further gmin increment
Trying gmin =   9.9996E-03 Warning: singular matrix:  check nodes vgate and vgate

Warning: Last gmin step failed
Warning: singular matrix:  check nodes vgate and vgate

Warning: True gmin stepping failed
Note: Starting source stepping
Supplies reduced to   0.0000% Warning: singular matrix:  check nodes vgate and vgate


Trying gmin =   1.0000E-02 Note: One successful gmin step
Trying gmin =   1.0000E-03 Note: One successful gmin step
Trying gmin =   1.0000E-04 Note: One successful gmin step
Trying gmin =   1.0000E-05 Note: One successful gmin step
Trying gmin =   1.0000E-06 Note: One successful gmin step
Trying gmin =   1.0000E-07 Note: One successful gmin step
Trying gmin =   1.0000E-08 Note: One successful gmin step
Trying gmin =   1.0000E-09 Note: One successful gmin step
Trying gmin =   1.0000E-10 Note: One successful gmin step
Trying gmin =   1.0000E-11 Note: One successful gmin step
Trying gmin =   1.0000E-12 Note: One successful gmin step
Note: One successful source step
Supplies reduced to   0.1000% Warning: singular matrix:  check nodes vgate and vgate

Supplies reduced to   0.0000% Warning: singular matrix:  check nodes vgate and vgate

Warning: source stepping failed
Note: Transient op started
Note: Transient op finished successfully

Initial Transient Solution
--------------------------

Node                                   Voltage
----                                   -------
vdd                                          0
vb                                -1.52168e-16
net2                              -1.52168e-16
net1                              -1.52168e-16
net5                               4.25263e-17
va                                 4.25263e-17
net4                              -1.52168e-16
net6                              -2.07902e-17
vbg                               -2.07902e-17
net3                               4.25263e-17
veb                                4.25263e-17
xbgr.xsky130_asc_res_xhigh_po_2p85_1_7.x0.xsky130_fd_pr__res_xhigh_po_2p85.ra    -6.41104e-18
xbgr.sky130_asc_res_xhigh_po_2p85_1_7/rin    -6.48337e-18
xbgr.xsky130_asc_res_xhigh_po_2p85_1_7.x1.xsky130_fd_pr__res_xhigh_po_2p85.ra    -7.20873e-20
xbgr.xsky130_asc_res_xhigh_po_2p85_1_8.x0.xsky130_fd_pr__res_xhigh_po_2p85.ra    -1.96395e-17
xbgr.sky130_asc_res_xhigh_po_2p85_1_8/rin    -1.97132e-17
xbgr.xsky130_asc_res_xhigh_po_2p85_1_8.x1.xsky130_fd_pr__res_xhigh_po_2p85.ra    -1.31474e-17
xbgr.sky130_asc_res_xhigh_po_2p85_1_9/rin    -1.30732e-17
xbgr.xsky130_asc_res_xhigh_po_2p85_1_9.x0.xsky130_fd_pr__res_xhigh_po_2p85.ra    -1.29995e-17
xbgr.xsky130_asc_res_xhigh_po_2p85_1_9.x1.xsky130_fd_pr__res_xhigh_po_2p85.ra    -6.55637e-18
xbgr.sky130_asc_cap_mim_m3_1_4/cout     4.78995e-15
xbgr.xsky130_asc_res_xhigh_po_2p85_1_30.x0.xsky130_fd_pr__res_xhigh_po_2p85.ra    -1.51143e-16
xbgr.sky130_asc_res_xhigh_po_2p85_1_30/rin    -1.51098e-16
xbgr.xsky130_asc_res_xhigh_po_2p85_1_30.x1.xsky130_fd_pr__res_xhigh_po_2p85.ra    -1.52189e-16
xbgr.xsky130_asc_res_xhigh_po_2p85_1_20.x0.xsky130_fd_pr__res_xhigh_po_2p85.ra     -1.4068e-16
xbgr.sky130_asc_res_xhigh_po_2p85_1_20/rin    -1.40554e-16
xbgr.xsky130_asc_res_xhigh_po_2p85_1_20.x1.xsky130_fd_pr__res_xhigh_po_2p85.ra    -1.50989e-16
xbgr.sky130_asc_res_xhigh_po_2p85_1_13/rout    -1.53223e-16
xbgr.xsky130_asc_res_xhigh_po_2p85_1_10.x0.xsky130_fd_pr__res_xhigh_po_2p85.ra    -2.08951e-17
xbgr.xsky130_asc_res_xhigh_po_2p85_1_10.x1.xsky130_fd_pr__res_xhigh_po_2p85.ra     -2.9821e-17
xbgr.sky130_asc_res_xhigh_po_2p85_1_3/rin    -2.99194e-17
xbgr.xsky130_asc_res_xhigh_po_2p85_1_21.x0.xsky130_fd_pr__res_xhigh_po_2p85.ra     2.04642e-17
xbgr.sky130_asc_res_xhigh_po_2p85_1_21/rin     2.05057e-17
xbgr.xsky130_asc_res_xhigh_po_2p85_1_21.x1.xsky130_fd_pr__res_xhigh_po_2p85.ra      1.6816e-17
xbgr.sky130_asc_res_xhigh_po_2p85_1_18/rin     1.67744e-17
xbgr.xsky130_asc_res_xhigh_po_2p85_2_0.x0.t1     1.86885e-20
xbgr.xsky130_asc_res_xhigh_po_2p85_2_0.x0.t2      2.7945e-18
xbgr.sky130_asc_res_xhigh_po_2p85_2_0/rin      5.5693e-18
xbgr.xsky130_asc_res_xhigh_po_2p85_2_0.x1.t1     5.55564e-18
xbgr.xsky130_asc_res_xhigh_po_2p85_2_0.x1.t2     2.82685e-18
xbgr.xsky130_asc_res_xhigh_po_2p85_1_11.x0.xsky130_fd_pr__res_xhigh_po_2p85.ra    -7.25552e-17
xbgr.sky130_asc_res_xhigh_po_2p85_1_11/rin    -7.27263e-17
xbgr.xsky130_asc_res_xhigh_po_2p85_1_11.x1.xsky130_fd_pr__res_xhigh_po_2p85.ra    -5.74116e-17
xbgr.sky130_asc_res_xhigh_po_2p85_1_6/rin    -5.72376e-17
xbgr.xsky130_asc_res_xhigh_po_2p85_1_22.x0.xsky130_fd_pr__res_xhigh_po_2p85.ra    -1.52262e-16
xbgr.xsky130_asc_res_xhigh_po_2p85_1_22.x1.xsky130_fd_pr__res_xhigh_po_2p85.ra    -1.57451e-16
xbgr.sky130_asc_res_xhigh_po_2p85_1_13/rin    -1.57475e-16
xbgr.xsky130_asc_res_xhigh_po_2p85_2_1.x0.t1    -5.98971e-20
xbgr.xsky130_asc_res_xhigh_po_2p85_2_1.x0.t2    -1.34671e-17
xbgr.sky130_asc_res_xhigh_po_2p85_2_1/rin    -2.49373e-17
xbgr.xsky130_asc_res_xhigh_po_2p85_2_1.x1.t1    -2.48818e-17
xbgr.xsky130_asc_res_xhigh_po_2p85_2_1.x1.t2    -1.35825e-17
xbgr.xsky130_asc_res_xhigh_po_2p85_1_12.x0.xsky130_fd_pr__res_xhigh_po_2p85.ra    -1.15059e-16
xbgr.sky130_asc_res_xhigh_po_2p85_1_12/rin    -1.15209e-16
xbgr.xsky130_asc_res_xhigh_po_2p85_1_12.x1.xsky130_fd_pr__res_xhigh_po_2p85.ra    -1.01772e-16
xbgr.sky130_asc_res_xhigh_po_2p85_1_15/rin     -1.0162e-16
xbgr.xsky130_asc_res_xhigh_po_2p85_1_23.x0.xsky130_fd_pr__res_xhigh_po_2p85.ra     3.14298e-17
xbgr.sky130_asc_res_xhigh_po_2p85_1_23/rin     3.14696e-17
xbgr.xsky130_asc_res_xhigh_po_2p85_1_23.x1.xsky130_fd_pr__res_xhigh_po_2p85.ra      2.7914e-17
xbgr.sky130_asc_res_xhigh_po_2p85_1_29/rin     2.78738e-17
xbgr.xsky130_asc_res_xhigh_po_2p85_1_13.x0.xsky130_fd_pr__res_xhigh_po_2p85.ra    -1.57441e-16
xbgr.xsky130_asc_res_xhigh_po_2p85_1_13.x1.xsky130_fd_pr__res_xhigh_po_2p85.ra    -1.53283e-16
xbgr.xsky130_asc_res_xhigh_po_2p85_1_24.x0.xsky130_fd_pr__res_xhigh_po_2p85.ra     3.85111e-17
xbgr.sky130_asc_res_xhigh_po_2p85_1_24/rin     3.85509e-17
xbgr.xsky130_asc_res_xhigh_po_2p85_1_24.x1.xsky130_fd_pr__res_xhigh_po_2p85.ra      3.5041e-17
xbgr.sky130_asc_res_xhigh_po_2p85_1_27/rin     3.50018e-17
xbgr.xsky130_asc_res_xhigh_po_2p85_1_14.x0.xsky130_fd_pr__res_xhigh_po_2p85.ra    -8.73362e-17
xbgr.sky130_asc_res_xhigh_po_2p85_1_14/rin    -8.74989e-17
xbgr.xsky130_asc_res_xhigh_po_2p85_1_14.x1.xsky130_fd_pr__res_xhigh_po_2p85.ra    -7.28926e-17
xbgr.xsky130_asc_res_xhigh_po_2p85_1_25.x0.xsky130_fd_pr__res_xhigh_po_2p85.ra       2.417e-17
xbgr.sky130_asc_res_xhigh_po_2p85_1_25/rin     2.42112e-17
xbgr.xsky130_asc_res_xhigh_po_2p85_1_25.x1.xsky130_fd_pr__res_xhigh_po_2p85.ra     2.05471e-17
xbgr.sky130_asc_nfet_01v8_lvt_1_1/gate     8.57635e-16
xbgr.xsky130_asc_res_xhigh_po_2p85_1_15.x0.xsky130_fd_pr__res_xhigh_po_2p85.ra    -1.01464e-16
xbgr.xsky130_asc_res_xhigh_po_2p85_1_15.x1.xsky130_fd_pr__res_xhigh_po_2p85.ra     -8.7658e-17
xbgr.xsky130_asc_res_xhigh_po_2p85_1_26.x0.xsky130_fd_pr__res_xhigh_po_2p85.ra     1.29793e-17
xbgr.sky130_asc_res_xhigh_po_2p85_1_26/rin     1.30204e-17
xbgr.xsky130_asc_res_xhigh_po_2p85_1_26.x1.xsky130_fd_pr__res_xhigh_po_2p85.ra     9.34689e-18
xbgr.sky130_asc_res_xhigh_po_2p85_1_28/rin     9.30527e-18
xbgr.xsky130_asc_res_xhigh_po_2p85_1_16.x0.xsky130_fd_pr__res_xhigh_po_2p85.ra    -1.28253e-16
xbgr.sky130_asc_res_xhigh_po_2p85_1_16/rin    -1.28398e-16
xbgr.xsky130_asc_res_xhigh_po_2p85_1_16.x1.xsky130_fd_pr__res_xhigh_po_2p85.ra    -1.15357e-16
xbgr.xsky130_asc_res_xhigh_po_2p85_1_27.x0.xsky130_fd_pr__res_xhigh_po_2p85.ra     3.49626e-17
xbgr.xsky130_asc_res_xhigh_po_2p85_1_27.x1.xsky130_fd_pr__res_xhigh_po_2p85.ra     3.15091e-17
xbgr.xsky130_asc_res_xhigh_po_2p85_1_17.x0.xsky130_fd_pr__res_xhigh_po_2p85.ra     4.24803e-17
xbgr.xsky130_asc_res_xhigh_po_2p85_1_17.x1.xsky130_fd_pr__res_xhigh_po_2p85.ra     3.85934e-17
xbgr.xsky130_asc_res_xhigh_po_2p85_1_28.x0.xsky130_fd_pr__res_xhigh_po_2p85.ra     9.26365e-18
xbgr.xsky130_asc_res_xhigh_po_2p85_1_28.x1.xsky130_fd_pr__res_xhigh_po_2p85.ra      5.6109e-18
porst                                        0
xbgr.xsky130_asc_res_xhigh_po_2p85_1_18.x0.xsky130_fd_pr__res_xhigh_po_2p85.ra     1.67319e-17
xbgr.xsky130_asc_res_xhigh_po_2p85_1_18.x1.xsky130_fd_pr__res_xhigh_po_2p85.ra     1.30616e-17
xbgr.sky130_asc_pfet_01v8_lvt_6_1/gate    -5.90156e-16
xbgr.xsky130_asc_res_xhigh_po_2p85_1_29.x0.xsky130_fd_pr__res_xhigh_po_2p85.ra     2.78332e-17
xbgr.xsky130_asc_res_xhigh_po_2p85_1_29.x1.xsky130_fd_pr__res_xhigh_po_2p85.ra     2.42521e-17
xbgr.sky130_asc_nfet_01v8_lvt_1_1/drain      3.3254e-15
xbgr.xsky130_asc_res_xhigh_po_2p85_1_19.x0.xsky130_fd_pr__res_xhigh_po_2p85.ra    -1.40421e-16
xbgr.xsky130_asc_res_xhigh_po_2p85_1_19.x1.xsky130_fd_pr__res_xhigh_po_2p85.ra    -1.28536e-16
xbgr.xsky130_asc_cap_mim_m3_1_0.x0.a    -1.70945e-22
xbgr.xsky130_asc_cap_mim_m3_1_0.x0.b1    -1.46428e-22
xbgr.xsky130_asc_cap_mim_m3_1_0.x1.a    -1.70945e-22
xbgr.xsky130_asc_cap_mim_m3_1_0.x1.b1    -1.46428e-22
xbgr.xsky130_asc_cap_mim_m3_1_0.x2.a    -1.70945e-22
xbgr.xsky130_asc_cap_mim_m3_1_0.x2.b1    -1.46428e-22
xbgr.xsky130_asc_cap_mim_m3_1_0.x3.a    -1.70945e-22
xbgr.xsky130_asc_cap_mim_m3_1_0.x3.b1    -1.46428e-22
xbgr.xsky130_asc_cap_mim_m3_1_0.x4.a    -1.70945e-22
xbgr.xsky130_asc_cap_mim_m3_1_0.x4.b1    -1.46428e-22
xbgr.xsky130_asc_cap_mim_m3_1_0.x5.a    -1.70945e-22
xbgr.xsky130_asc_cap_mim_m3_1_0.x5.b1    -1.46428e-22
xbgr.xsky130_asc_cap_mim_m3_1_0.x6.a    -1.70945e-22
xbgr.xsky130_asc_cap_mim_m3_1_0.x6.b1    -1.46428e-22
xbgr.xsky130_asc_cap_mim_m3_1_0.x7.a    -1.70945e-22
xbgr.xsky130_asc_cap_mim_m3_1_0.x7.b1    -1.46428e-22
xbgr.xsky130_asc_cap_mim_m3_1_0.x8.a    -1.70945e-22
xbgr.xsky130_asc_cap_mim_m3_1_0.x8.b1    -1.46428e-22
xbgr.xsky130_asc_cap_mim_m3_1_0.x9.a    -1.70945e-22
xbgr.xsky130_asc_cap_mim_m3_1_0.x9.b1    -1.46428e-22
xbgr.xsky130_asc_cap_mim_m3_1_0.x10.a    -1.70945e-22
xbgr.xsky130_asc_cap_mim_m3_1_0.x10.b1    -1.46428e-22
xbgr.xsky130_asc_cap_mim_m3_1_0.x11.a    -1.70945e-22
xbgr.xsky130_asc_cap_mim_m3_1_0.x11.b1    -1.46428e-22
xbgr.xsky130_asc_cap_mim_m3_1_0.x12.a    -1.70945e-22
xbgr.xsky130_asc_cap_mim_m3_1_0.x12.b1    -1.46428e-22
xbgr.xsky130_asc_cap_mim_m3_1_0.x13.a    -1.70945e-22
xbgr.xsky130_asc_cap_mim_m3_1_0.x13.b1    -1.46428e-22
xbgr.xsky130_asc_cap_mim_m3_1_0.x14.a    -1.70945e-22
xbgr.xsky130_asc_cap_mim_m3_1_0.x14.b1    -1.46428e-22
xbgr.xsky130_asc_cap_mim_m3_1_0.x15.a    -1.70945e-22
xbgr.xsky130_asc_cap_mim_m3_1_0.x15.b1    -1.46428e-22
xbgr.xsky130_asc_cap_mim_m3_1_0.x16.a    -1.70945e-22
xbgr.xsky130_asc_cap_mim_m3_1_0.x16.b1    -1.46428e-22
xbgr.xsky130_asc_cap_mim_m3_1_0.x17.a    -1.70945e-22
xbgr.xsky130_asc_cap_mim_m3_1_0.x17.b1    -1.46428e-22
xbgr.xsky130_asc_cap_mim_m3_1_0.x18.a    -1.70945e-22
xbgr.xsky130_asc_cap_mim_m3_1_0.x18.b1    -1.46428e-22
xbgr.xsky130_asc_cap_mim_m3_1_0.x19.a    -1.70945e-22
xbgr.xsky130_asc_cap_mim_m3_1_0.x19.b1    -1.46428e-22
xbgr.xsky130_asc_cap_mim_m3_1_1.x0.a    -1.70945e-22
xbgr.xsky130_asc_cap_mim_m3_1_1.x0.b1    -1.46428e-22
xbgr.xsky130_asc_cap_mim_m3_1_1.x1.a    -1.70945e-22
xbgr.xsky130_asc_cap_mim_m3_1_1.x1.b1    -1.46428e-22
xbgr.xsky130_asc_cap_mim_m3_1_1.x2.a    -1.70945e-22
xbgr.xsky130_asc_cap_mim_m3_1_1.x2.b1    -1.46428e-22
xbgr.xsky130_asc_cap_mim_m3_1_1.x3.a    -1.70945e-22
xbgr.xsky130_asc_cap_mim_m3_1_1.x3.b1    -1.46428e-22
xbgr.xsky130_asc_cap_mim_m3_1_1.x4.a    -1.70945e-22
xbgr.xsky130_asc_cap_mim_m3_1_1.x4.b1    -1.46428e-22
xbgr.xsky130_asc_cap_mim_m3_1_1.x5.a    -1.70945e-22
xbgr.xsky130_asc_cap_mim_m3_1_1.x5.b1    -1.46428e-22
xbgr.xsky130_asc_cap_mim_m3_1_1.x6.a    -1.70945e-22
xbgr.xsky130_asc_cap_mim_m3_1_1.x6.b1    -1.46428e-22
xbgr.xsky130_asc_cap_mim_m3_1_1.x7.a    -1.70945e-22
xbgr.xsky130_asc_cap_mim_m3_1_1.x7.b1    -1.46428e-22
xbgr.xsky130_asc_cap_mim_m3_1_1.x8.a    -1.70945e-22
xbgr.xsky130_asc_cap_mim_m3_1_1.x8.b1    -1.46428e-22
xbgr.xsky130_asc_cap_mim_m3_1_1.x9.a    -1.70945e-22
xbgr.xsky130_asc_cap_mim_m3_1_1.x9.b1    -1.46428e-22
xbgr.xsky130_asc_cap_mim_m3_1_1.x10.a    -1.70945e-22
xbgr.xsky130_asc_cap_mim_m3_1_1.x10.b1    -1.46428e-22
xbgr.xsky130_asc_cap_mim_m3_1_1.x11.a    -1.70945e-22
xbgr.xsky130_asc_cap_mim_m3_1_1.x11.b1    -1.46428e-22
xbgr.xsky130_asc_cap_mim_m3_1_1.x12.a    -1.70945e-22
xbgr.xsky130_asc_cap_mim_m3_1_1.x12.b1    -1.46428e-22
xbgr.xsky130_asc_cap_mim_m3_1_1.x13.a    -1.70945e-22
xbgr.xsky130_asc_cap_mim_m3_1_1.x13.b1    -1.46428e-22
xbgr.xsky130_asc_cap_mim_m3_1_1.x14.a    -1.70945e-22
xbgr.xsky130_asc_cap_mim_m3_1_1.x14.b1    -1.46428e-22
xbgr.xsky130_asc_cap_mim_m3_1_1.x15.a    -1.70945e-22
xbgr.xsky130_asc_cap_mim_m3_1_1.x15.b1    -1.46428e-22
xbgr.xsky130_asc_cap_mim_m3_1_1.x16.a    -1.70945e-22
xbgr.xsky130_asc_cap_mim_m3_1_1.x16.b1    -1.46428e-22
xbgr.xsky130_asc_cap_mim_m3_1_1.x17.a    -1.70945e-22
xbgr.xsky130_asc_cap_mim_m3_1_1.x17.b1    -1.46428e-22
xbgr.xsky130_asc_cap_mim_m3_1_1.x18.a    -1.70945e-22
xbgr.xsky130_asc_cap_mim_m3_1_1.x18.b1    -1.46428e-22
xbgr.xsky130_asc_cap_mim_m3_1_1.x19.a    -1.70945e-22
xbgr.xsky130_asc_cap_mim_m3_1_1.x19.b1    -1.46428e-22
xbgr.xsky130_asc_cap_mim_m3_1_2.x0.a    -1.70945e-22
xbgr.xsky130_asc_cap_mim_m3_1_2.x0.b1    -1.46428e-22
xbgr.xsky130_asc_cap_mim_m3_1_2.x1.a    -1.70945e-22
xbgr.xsky130_asc_cap_mim_m3_1_2.x1.b1    -1.46428e-22
xbgr.xsky130_asc_cap_mim_m3_1_2.x2.a    -1.70945e-22
xbgr.xsky130_asc_cap_mim_m3_1_2.x2.b1    -1.46428e-22
xbgr.xsky130_asc_cap_mim_m3_1_2.x3.a    -1.70945e-22
xbgr.xsky130_asc_cap_mim_m3_1_2.x3.b1    -1.46428e-22
xbgr.xsky130_asc_cap_mim_m3_1_2.x4.a    -1.70945e-22
xbgr.xsky130_asc_cap_mim_m3_1_2.x4.b1    -1.46428e-22
xbgr.xsky130_asc_cap_mim_m3_1_2.x5.a    -1.70945e-22
xbgr.xsky130_asc_cap_mim_m3_1_2.x5.b1    -1.46428e-22
xbgr.xsky130_asc_cap_mim_m3_1_2.x6.a    -1.70945e-22
xbgr.xsky130_asc_cap_mim_m3_1_2.x6.b1    -1.46428e-22
xbgr.xsky130_asc_cap_mim_m3_1_2.x7.a    -1.70945e-22
xbgr.xsky130_asc_cap_mim_m3_1_2.x7.b1    -1.46428e-22
xbgr.xsky130_asc_cap_mim_m3_1_2.x8.a    -1.70945e-22
xbgr.xsky130_asc_cap_mim_m3_1_2.x8.b1    -1.46428e-22
xbgr.xsky130_asc_cap_mim_m3_1_2.x9.a    -1.70945e-22
xbgr.xsky130_asc_cap_mim_m3_1_2.x9.b1    -1.46428e-22
xbgr.xsky130_asc_cap_mim_m3_1_2.x10.a    -1.70945e-22
xbgr.xsky130_asc_cap_mim_m3_1_2.x10.b1    -1.46428e-22
xbgr.xsky130_asc_cap_mim_m3_1_2.x11.a    -1.70945e-22
xbgr.xsky130_asc_cap_mim_m3_1_2.x11.b1    -1.46428e-22
xbgr.xsky130_asc_cap_mim_m3_1_2.x12.a    -1.70945e-22
xbgr.xsky130_asc_cap_mim_m3_1_2.x12.b1    -1.46428e-22
xbgr.xsky130_asc_cap_mim_m3_1_2.x13.a    -1.70945e-22
xbgr.xsky130_asc_cap_mim_m3_1_2.x13.b1    -1.46428e-22
xbgr.xsky130_asc_cap_mim_m3_1_2.x14.a    -1.70945e-22
xbgr.xsky130_asc_cap_mim_m3_1_2.x14.b1    -1.46428e-22
xbgr.xsky130_asc_cap_mim_m3_1_2.x15.a    -1.70945e-22
xbgr.xsky130_asc_cap_mim_m3_1_2.x15.b1    -1.46428e-22
xbgr.xsky130_asc_cap_mim_m3_1_2.x16.a    -1.70945e-22
xbgr.xsky130_asc_cap_mim_m3_1_2.x16.b1    -1.46428e-22
xbgr.xsky130_asc_cap_mim_m3_1_2.x17.a    -1.70945e-22
xbgr.xsky130_asc_cap_mim_m3_1_2.x17.b1    -1.46428e-22
xbgr.xsky130_asc_cap_mim_m3_1_2.x18.a    -1.70945e-22
xbgr.xsky130_asc_cap_mim_m3_1_2.x18.b1    -1.46428e-22
xbgr.xsky130_asc_cap_mim_m3_1_2.x19.a    -1.70945e-22
xbgr.xsky130_asc_cap_mim_m3_1_2.x19.b1    -1.46428e-22
xbgr.xsky130_asc_cap_mim_m3_1_3.x0.a    -1.70945e-22
xbgr.xsky130_asc_cap_mim_m3_1_3.x0.b1    -1.46428e-22
xbgr.xsky130_asc_cap_mim_m3_1_3.x1.a    -1.70945e-22
xbgr.xsky130_asc_cap_mim_m3_1_3.x1.b1    -1.46428e-22
xbgr.xsky130_asc_cap_mim_m3_1_3.x2.a    -1.70945e-22
xbgr.xsky130_asc_cap_mim_m3_1_3.x2.b1    -1.46428e-22
xbgr.xsky130_asc_cap_mim_m3_1_3.x3.a    -1.70945e-22
xbgr.xsky130_asc_cap_mim_m3_1_3.x3.b1    -1.46428e-22
xbgr.xsky130_asc_cap_mim_m3_1_3.x4.a    -1.70945e-22
xbgr.xsky130_asc_cap_mim_m3_1_3.x4.b1    -1.46428e-22
xbgr.xsky130_asc_cap_mim_m3_1_3.x5.a    -1.70945e-22
xbgr.xsky130_asc_cap_mim_m3_1_3.x5.b1    -1.46428e-22
xbgr.xsky130_asc_cap_mim_m3_1_3.x6.a    -1.70945e-22
xbgr.xsky130_asc_cap_mim_m3_1_3.x6.b1    -1.46428e-22
xbgr.xsky130_asc_cap_mim_m3_1_3.x7.a    -1.70945e-22
xbgr.xsky130_asc_cap_mim_m3_1_3.x7.b1    -1.46428e-22
xbgr.xsky130_asc_cap_mim_m3_1_3.x8.a    -1.70945e-22
xbgr.xsky130_asc_cap_mim_m3_1_3.x8.b1    -1.46428e-22
xbgr.xsky130_asc_cap_mim_m3_1_3.x9.a    -1.70945e-22
xbgr.xsky130_asc_cap_mim_m3_1_3.x9.b1    -1.46428e-22
xbgr.xsky130_asc_cap_mim_m3_1_3.x10.a    -1.70945e-22
xbgr.xsky130_asc_cap_mim_m3_1_3.x10.b1    -1.46428e-22
xbgr.xsky130_asc_cap_mim_m3_1_3.x11.a    -1.70945e-22
xbgr.xsky130_asc_cap_mim_m3_1_3.x11.b1    -1.46428e-22
xbgr.xsky130_asc_cap_mim_m3_1_3.x12.a    -1.70945e-22
xbgr.xsky130_asc_cap_mim_m3_1_3.x12.b1    -1.46428e-22
xbgr.xsky130_asc_cap_mim_m3_1_3.x13.a    -1.70945e-22
xbgr.xsky130_asc_cap_mim_m3_1_3.x13.b1    -1.46428e-22
xbgr.xsky130_asc_cap_mim_m3_1_3.x14.a    -1.70945e-22
xbgr.xsky130_asc_cap_mim_m3_1_3.x14.b1    -1.46428e-22
xbgr.xsky130_asc_cap_mim_m3_1_3.x15.a    -1.70945e-22
xbgr.xsky130_asc_cap_mim_m3_1_3.x15.b1    -1.46428e-22
xbgr.xsky130_asc_cap_mim_m3_1_3.x16.a    -1.70945e-22
xbgr.xsky130_asc_cap_mim_m3_1_3.x16.b1    -1.46428e-22
xbgr.xsky130_asc_cap_mim_m3_1_3.x17.a    -1.70945e-22
xbgr.xsky130_asc_cap_mim_m3_1_3.x17.b1    -1.46428e-22
xbgr.xsky130_asc_cap_mim_m3_1_3.x18.a    -1.70945e-22
xbgr.xsky130_asc_cap_mim_m3_1_3.x18.b1    -1.46428e-22
xbgr.xsky130_asc_cap_mim_m3_1_3.x19.a    -1.70945e-22
xbgr.xsky130_asc_cap_mim_m3_1_3.x19.b1    -1.46428e-22
xbgr.xsky130_asc_cap_mim_m3_1_4.x0.a    -1.70945e-22
xbgr.xsky130_asc_cap_mim_m3_1_4.x0.b1    -1.46428e-22
xbgr.xsky130_asc_cap_mim_m3_1_4.x1.a    -1.70945e-22
xbgr.xsky130_asc_cap_mim_m3_1_4.x1.b1    -1.46428e-22
xbgr.xsky130_asc_cap_mim_m3_1_4.x2.a    -1.70945e-22
xbgr.xsky130_asc_cap_mim_m3_1_4.x2.b1    -1.46428e-22
xbgr.xsky130_asc_cap_mim_m3_1_4.x3.a    -1.70945e-22
xbgr.xsky130_asc_cap_mim_m3_1_4.x3.b1    -1.46428e-22
xbgr.xsky130_asc_cap_mim_m3_1_4.x4.a    -1.70945e-22
xbgr.xsky130_asc_cap_mim_m3_1_4.x4.b1    -1.46428e-22
xbgr.xsky130_asc_cap_mim_m3_1_4.x5.a    -1.70945e-22
xbgr.xsky130_asc_cap_mim_m3_1_4.x5.b1    -1.46428e-22
xbgr.xsky130_asc_cap_mim_m3_1_4.x6.a    -1.70945e-22
xbgr.xsky130_asc_cap_mim_m3_1_4.x6.b1    -1.46428e-22
xbgr.xsky130_asc_cap_mim_m3_1_4.x7.a    -1.70945e-22
xbgr.xsky130_asc_cap_mim_m3_1_4.x7.b1    -1.46428e-22
xbgr.xsky130_asc_cap_mim_m3_1_4.x8.a    -1.70945e-22
xbgr.xsky130_asc_cap_mim_m3_1_4.x8.b1    -1.46428e-22
xbgr.xsky130_asc_cap_mim_m3_1_4.x9.a    -1.70945e-22
xbgr.xsky130_asc_cap_mim_m3_1_4.x9.b1    -1.46428e-22
xbgr.xsky130_asc_cap_mim_m3_1_4.x10.a    -1.70945e-22
xbgr.xsky130_asc_cap_mim_m3_1_4.x10.b1    -1.46428e-22
xbgr.xsky130_asc_cap_mim_m3_1_4.x11.a    -1.70945e-22
xbgr.xsky130_asc_cap_mim_m3_1_4.x11.b1    -1.46428e-22
xbgr.xsky130_asc_cap_mim_m3_1_4.x12.a    -1.70945e-22
xbgr.xsky130_asc_cap_mim_m3_1_4.x12.b1    -1.46428e-22
xbgr.xsky130_asc_cap_mim_m3_1_4.x13.a    -1.70945e-22
xbgr.xsky130_asc_cap_mim_m3_1_4.x13.b1    -1.46428e-22
xbgr.xsky130_asc_cap_mim_m3_1_4.x14.a    -1.70945e-22
xbgr.xsky130_asc_cap_mim_m3_1_4.x14.b1    -1.46428e-22
xbgr.xsky130_asc_cap_mim_m3_1_4.x15.a    -1.70945e-22
xbgr.xsky130_asc_cap_mim_m3_1_4.x15.b1    -1.46428e-22
xbgr.xsky130_asc_cap_mim_m3_1_4.x16.a    -1.70945e-22
xbgr.xsky130_asc_cap_mim_m3_1_4.x16.b1    -1.46428e-22
xbgr.xsky130_asc_cap_mim_m3_1_4.x17.a    -1.70945e-22
xbgr.xsky130_asc_cap_mim_m3_1_4.x17.b1    -1.46428e-22
xbgr.xsky130_asc_cap_mim_m3_1_4.x18.a    -1.70945e-22
xbgr.xsky130_asc_cap_mim_m3_1_4.x18.b1    -1.46428e-22
xbgr.xsky130_asc_cap_mim_m3_1_4.x19.a    -1.70945e-22
xbgr.xsky130_asc_cap_mim_m3_1_4.x19.b1    -1.46428e-22
xbgr.xsky130_asc_cap_mim_m3_1_5.x0.a     4.25263e-17
xbgr.xsky130_asc_cap_mim_m3_1_5.x0.b1     4.25263e-17
xbgr.xsky130_asc_cap_mim_m3_1_5.x1.a     4.25263e-17
xbgr.xsky130_asc_cap_mim_m3_1_5.x1.b1     4.25263e-17
xbgr.xsky130_asc_cap_mim_m3_1_5.x2.a     4.25263e-17
xbgr.xsky130_asc_cap_mim_m3_1_5.x2.b1     4.25263e-17
xbgr.xsky130_asc_cap_mim_m3_1_5.x3.a     4.25263e-17
xbgr.xsky130_asc_cap_mim_m3_1_5.x3.b1     4.25263e-17
xbgr.xsky130_asc_cap_mim_m3_1_5.x4.a     4.25263e-17
xbgr.xsky130_asc_cap_mim_m3_1_5.x4.b1     4.25263e-17
xbgr.xsky130_asc_cap_mim_m3_1_5.x5.a     4.25263e-17
xbgr.xsky130_asc_cap_mim_m3_1_5.x5.b1     4.25263e-17
xbgr.xsky130_asc_cap_mim_m3_1_5.x6.a     4.25263e-17
xbgr.xsky130_asc_cap_mim_m3_1_5.x6.b1     4.25263e-17
xbgr.xsky130_asc_cap_mim_m3_1_5.x7.a     4.25263e-17
xbgr.xsky130_asc_cap_mim_m3_1_5.x7.b1     4.25263e-17
xbgr.xsky130_asc_cap_mim_m3_1_5.x8.a     4.25263e-17
xbgr.xsky130_asc_cap_mim_m3_1_5.x8.b1     4.25263e-17
xbgr.xsky130_asc_cap_mim_m3_1_5.x9.a     4.25263e-17
xbgr.xsky130_asc_cap_mim_m3_1_5.x9.b1     4.25263e-17
xbgr.xsky130_asc_cap_mim_m3_1_5.x10.a     4.25263e-17
xbgr.xsky130_asc_cap_mim_m3_1_5.x10.b1     4.25263e-17
xbgr.xsky130_asc_cap_mim_m3_1_5.x11.a     4.25263e-17
xbgr.xsky130_asc_cap_mim_m3_1_5.x11.b1     4.25263e-17
xbgr.xsky130_asc_cap_mim_m3_1_5.x12.a     4.25263e-17
xbgr.xsky130_asc_cap_mim_m3_1_5.x12.b1     4.25263e-17
xbgr.xsky130_asc_cap_mim_m3_1_5.x13.a     4.25263e-17
xbgr.xsky130_asc_cap_mim_m3_1_5.x13.b1     4.25263e-17
xbgr.xsky130_asc_cap_mim_m3_1_5.x14.a     4.25263e-17
xbgr.xsky130_asc_cap_mim_m3_1_5.x14.b1     4.25263e-17
xbgr.xsky130_asc_cap_mim_m3_1_5.x15.a     4.25263e-17
xbgr.xsky130_asc_cap_mim_m3_1_5.x15.b1     4.25263e-17
xbgr.xsky130_asc_cap_mim_m3_1_5.x16.a     4.25263e-17
xbgr.xsky130_asc_cap_mim_m3_1_5.x16.b1     4.25263e-17
xbgr.xsky130_asc_cap_mim_m3_1_5.x17.a     4.25263e-17
xbgr.xsky130_asc_cap_mim_m3_1_5.x17.b1     4.25263e-17
xbgr.xsky130_asc_cap_mim_m3_1_5.x18.a     4.25263e-17
xbgr.xsky130_asc_cap_mim_m3_1_5.x18.b1     4.25263e-17
xbgr.xsky130_asc_cap_mim_m3_1_5.x19.a     4.25263e-17
xbgr.xsky130_asc_cap_mim_m3_1_5.x19.b1     4.25263e-17
xbgr.xsky130_asc_res_xhigh_po_2p85_1_0.x0.xsky130_fd_pr__res_xhigh_po_2p85.ra    -3.13767e-17
xbgr.sky130_asc_res_xhigh_po_2p85_1_0/rin     -3.1433e-17
xbgr.xsky130_asc_res_xhigh_po_2p85_1_0.x1.xsky130_fd_pr__res_xhigh_po_2p85.ra     -2.6118e-17
xbgr.sky130_asc_res_xhigh_po_2p85_1_5/rin    -2.60545e-17
xbgr.xsky130_asc_cap_mim_m3_1_6.x0.a     4.25263e-17
xbgr.xsky130_asc_cap_mim_m3_1_6.x0.b1     4.25263e-17
xbgr.xsky130_asc_cap_mim_m3_1_6.x1.a     4.25263e-17
xbgr.xsky130_asc_cap_mim_m3_1_6.x1.b1     4.25263e-17
xbgr.xsky130_asc_cap_mim_m3_1_6.x2.a     4.25263e-17
xbgr.xsky130_asc_cap_mim_m3_1_6.x2.b1     4.25263e-17
xbgr.xsky130_asc_cap_mim_m3_1_6.x3.a     4.25263e-17
xbgr.xsky130_asc_cap_mim_m3_1_6.x3.b1     4.25263e-17
xbgr.xsky130_asc_cap_mim_m3_1_6.x4.a     4.25263e-17
xbgr.xsky130_asc_cap_mim_m3_1_6.x4.b1     4.25263e-17
xbgr.xsky130_asc_cap_mim_m3_1_6.x5.a     4.25263e-17
xbgr.xsky130_asc_cap_mim_m3_1_6.x5.b1     4.25263e-17
xbgr.xsky130_asc_cap_mim_m3_1_6.x6.a     4.25263e-17
xbgr.xsky130_asc_cap_mim_m3_1_6.x6.b1     4.25263e-17
xbgr.xsky130_asc_cap_mim_m3_1_6.x7.a     4.25263e-17
xbgr.xsky130_asc_cap_mim_m3_1_6.x7.b1     4.25263e-17
xbgr.xsky130_asc_cap_mim_m3_1_6.x8.a     4.25263e-17
xbgr.xsky130_asc_cap_mim_m3_1_6.x8.b1     4.25263e-17
xbgr.xsky130_asc_cap_mim_m3_1_6.x9.a     4.25263e-17
xbgr.xsky130_asc_cap_mim_m3_1_6.x9.b1     4.25263e-17
xbgr.xsky130_asc_cap_mim_m3_1_6.x10.a     4.25263e-17
xbgr.xsky130_asc_cap_mim_m3_1_6.x10.b1     4.25263e-17
xbgr.xsky130_asc_cap_mim_m3_1_6.x11.a     4.25263e-17
xbgr.xsky130_asc_cap_mim_m3_1_6.x11.b1     4.25263e-17
xbgr.xsky130_asc_cap_mim_m3_1_6.x12.a     4.25263e-17
xbgr.xsky130_asc_cap_mim_m3_1_6.x12.b1     4.25263e-17
xbgr.xsky130_asc_cap_mim_m3_1_6.x13.a     4.25263e-17
xbgr.xsky130_asc_cap_mim_m3_1_6.x13.b1     4.25263e-17
xbgr.xsky130_asc_cap_mim_m3_1_6.x14.a     4.25263e-17
xbgr.xsky130_asc_cap_mim_m3_1_6.x14.b1     4.25263e-17
xbgr.xsky130_asc_cap_mim_m3_1_6.x15.a     4.25263e-17
xbgr.xsky130_asc_cap_mim_m3_1_6.x15.b1     4.25263e-17
xbgr.xsky130_asc_cap_mim_m3_1_6.x16.a     4.25263e-17
xbgr.xsky130_asc_cap_mim_m3_1_6.x16.b1     4.25263e-17
xbgr.xsky130_asc_cap_mim_m3_1_6.x17.a     4.25263e-17
xbgr.xsky130_asc_cap_mim_m3_1_6.x17.b1     4.25263e-17
xbgr.xsky130_asc_cap_mim_m3_1_6.x18.a     4.25263e-17
xbgr.xsky130_asc_cap_mim_m3_1_6.x18.b1     4.25263e-17
xbgr.xsky130_asc_cap_mim_m3_1_6.x19.a     4.25263e-17
xbgr.xsky130_asc_cap_mim_m3_1_6.x19.b1     4.25263e-17
xbgr.xsky130_asc_res_xhigh_po_2p85_1_1.x0.xsky130_fd_pr__res_xhigh_po_2p85.ra    -3.48555e-17
xbgr.sky130_asc_res_xhigh_po_2p85_1_1/rin    -3.48865e-17
xbgr.xsky130_asc_res_xhigh_po_2p85_1_1.x1.xsky130_fd_pr__res_xhigh_po_2p85.ra    -3.14789e-17
xbgr.xsky130_asc_cap_mim_m3_1_7.x0.a     4.25263e-17
xbgr.xsky130_asc_cap_mim_m3_1_7.x0.b1     4.25263e-17
xbgr.xsky130_asc_cap_mim_m3_1_7.x1.a     4.25263e-17
xbgr.xsky130_asc_cap_mim_m3_1_7.x1.b1     4.25263e-17
xbgr.xsky130_asc_cap_mim_m3_1_7.x2.a     4.25263e-17
xbgr.xsky130_asc_cap_mim_m3_1_7.x2.b1     4.25263e-17
xbgr.xsky130_asc_cap_mim_m3_1_7.x3.a     4.25263e-17
xbgr.xsky130_asc_cap_mim_m3_1_7.x3.b1     4.25263e-17
xbgr.xsky130_asc_cap_mim_m3_1_7.x4.a     4.25263e-17
xbgr.xsky130_asc_cap_mim_m3_1_7.x4.b1     4.25263e-17
xbgr.xsky130_asc_cap_mim_m3_1_7.x5.a     4.25263e-17
xbgr.xsky130_asc_cap_mim_m3_1_7.x5.b1     4.25263e-17
xbgr.xsky130_asc_cap_mim_m3_1_7.x6.a     4.25263e-17
xbgr.xsky130_asc_cap_mim_m3_1_7.x6.b1     4.25263e-17
xbgr.xsky130_asc_cap_mim_m3_1_7.x7.a     4.25263e-17
xbgr.xsky130_asc_cap_mim_m3_1_7.x7.b1     4.25263e-17
xbgr.xsky130_asc_cap_mim_m3_1_7.x8.a     4.25263e-17
xbgr.xsky130_asc_cap_mim_m3_1_7.x8.b1     4.25263e-17
xbgr.xsky130_asc_cap_mim_m3_1_7.x9.a     4.25263e-17
xbgr.xsky130_asc_cap_mim_m3_1_7.x9.b1     4.25263e-17
xbgr.xsky130_asc_cap_mim_m3_1_7.x10.a     4.25263e-17
xbgr.xsky130_asc_cap_mim_m3_1_7.x10.b1     4.25263e-17
xbgr.xsky130_asc_cap_mim_m3_1_7.x11.a     4.25263e-17
xbgr.xsky130_asc_cap_mim_m3_1_7.x11.b1     4.25263e-17
xbgr.xsky130_asc_cap_mim_m3_1_7.x12.a     4.25263e-17
xbgr.xsky130_asc_cap_mim_m3_1_7.x12.b1     4.25263e-17
xbgr.xsky130_asc_cap_mim_m3_1_7.x13.a     4.25263e-17
xbgr.xsky130_asc_cap_mim_m3_1_7.x13.b1     4.25263e-17
xbgr.xsky130_asc_cap_mim_m3_1_7.x14.a     4.25263e-17
xbgr.xsky130_asc_cap_mim_m3_1_7.x14.b1     4.25263e-17
xbgr.xsky130_asc_cap_mim_m3_1_7.x15.a     4.25263e-17
xbgr.xsky130_asc_cap_mim_m3_1_7.x15.b1     4.25263e-17
xbgr.xsky130_asc_cap_mim_m3_1_7.x16.a     4.25263e-17
xbgr.xsky130_asc_cap_mim_m3_1_7.x16.b1     4.25263e-17
xbgr.xsky130_asc_cap_mim_m3_1_7.x17.a     4.25263e-17
xbgr.xsky130_asc_cap_mim_m3_1_7.x17.b1     4.25263e-17
xbgr.xsky130_asc_cap_mim_m3_1_7.x18.a     4.25263e-17
xbgr.xsky130_asc_cap_mim_m3_1_7.x18.b1     4.25263e-17
xbgr.xsky130_asc_cap_mim_m3_1_7.x19.a     4.25263e-17
xbgr.xsky130_asc_cap_mim_m3_1_7.x19.b1     4.25263e-17
xbgr.xsky130_asc_res_xhigh_po_2p85_1_2.x0.xsky130_fd_pr__res_xhigh_po_2p85.ra    -4.10316e-17
xbgr.sky130_asc_res_xhigh_po_2p85_1_2/rin    -4.12129e-17
xbgr.xsky130_asc_res_xhigh_po_2p85_1_2.x1.xsky130_fd_pr__res_xhigh_po_2p85.ra    -2.51186e-17
xbgr.xsky130_asc_cap_mim_m3_1_8.x0.a     4.25263e-17
xbgr.xsky130_asc_cap_mim_m3_1_8.x0.b1     4.25263e-17
xbgr.xsky130_asc_cap_mim_m3_1_8.x1.a     4.25263e-17
xbgr.xsky130_asc_cap_mim_m3_1_8.x1.b1     4.25263e-17
xbgr.xsky130_asc_cap_mim_m3_1_8.x2.a     4.25263e-17
xbgr.xsky130_asc_cap_mim_m3_1_8.x2.b1     4.25263e-17
xbgr.xsky130_asc_cap_mim_m3_1_8.x3.a     4.25263e-17
xbgr.xsky130_asc_cap_mim_m3_1_8.x3.b1     4.25263e-17
xbgr.xsky130_asc_cap_mim_m3_1_8.x4.a     4.25263e-17
xbgr.xsky130_asc_cap_mim_m3_1_8.x4.b1     4.25263e-17
xbgr.xsky130_asc_cap_mim_m3_1_8.x5.a     4.25263e-17
xbgr.xsky130_asc_cap_mim_m3_1_8.x5.b1     4.25263e-17
xbgr.xsky130_asc_cap_mim_m3_1_8.x6.a     4.25263e-17
xbgr.xsky130_asc_cap_mim_m3_1_8.x6.b1     4.25263e-17
xbgr.xsky130_asc_cap_mim_m3_1_8.x7.a     4.25263e-17
xbgr.xsky130_asc_cap_mim_m3_1_8.x7.b1     4.25263e-17
xbgr.xsky130_asc_cap_mim_m3_1_8.x8.a     4.25263e-17
xbgr.xsky130_asc_cap_mim_m3_1_8.x8.b1     4.25263e-17
xbgr.xsky130_asc_cap_mim_m3_1_8.x9.a     4.25263e-17
xbgr.xsky130_asc_cap_mim_m3_1_8.x9.b1     4.25263e-17
xbgr.xsky130_asc_cap_mim_m3_1_8.x10.a     4.25263e-17
xbgr.xsky130_asc_cap_mim_m3_1_8.x10.b1     4.25263e-17
xbgr.xsky130_asc_cap_mim_m3_1_8.x11.a     4.25263e-17
xbgr.xsky130_asc_cap_mim_m3_1_8.x11.b1     4.25263e-17
xbgr.xsky130_asc_cap_mim_m3_1_8.x12.a     4.25263e-17
xbgr.xsky130_asc_cap_mim_m3_1_8.x12.b1     4.25263e-17
xbgr.xsky130_asc_cap_mim_m3_1_8.x13.a     4.25263e-17
xbgr.xsky130_asc_cap_mim_m3_1_8.x13.b1     4.25263e-17
xbgr.xsky130_asc_cap_mim_m3_1_8.x14.a     4.25263e-17
xbgr.xsky130_asc_cap_mim_m3_1_8.x14.b1     4.25263e-17
xbgr.xsky130_asc_cap_mim_m3_1_8.x15.a     4.25263e-17
xbgr.xsky130_asc_cap_mim_m3_1_8.x15.b1     4.25263e-17
xbgr.xsky130_asc_cap_mim_m3_1_8.x16.a     4.25263e-17
xbgr.xsky130_asc_cap_mim_m3_1_8.x16.b1     4.25263e-17
xbgr.xsky130_asc_cap_mim_m3_1_8.x17.a     4.25263e-17
xbgr.xsky130_asc_cap_mim_m3_1_8.x17.b1     4.25263e-17
xbgr.xsky130_asc_cap_mim_m3_1_8.x18.a     4.25263e-17
xbgr.xsky130_asc_cap_mim_m3_1_8.x18.b1     4.25263e-17
xbgr.xsky130_asc_cap_mim_m3_1_8.x19.a     4.25263e-17
xbgr.xsky130_asc_cap_mim_m3_1_8.x19.b1     4.25263e-17
xbgr.xsky130_asc_res_xhigh_po_2p85_1_3.x0.xsky130_fd_pr__res_xhigh_po_2p85.ra    -2.99871e-17
xbgr.xsky130_asc_res_xhigh_po_2p85_1_3.x1.xsky130_fd_pr__res_xhigh_po_2p85.ra    -3.47321e-17
xbgr.sky130_asc_res_xhigh_po_2p85_1_4/rin    -3.47726e-17
xbgr.xsky130_asc_cap_mim_m3_1_9.x0.a     4.25263e-17
xbgr.xsky130_asc_cap_mim_m3_1_9.x0.b1     4.25263e-17
xbgr.xsky130_asc_cap_mim_m3_1_9.x1.a     4.25263e-17
xbgr.xsky130_asc_cap_mim_m3_1_9.x1.b1     4.25263e-17
xbgr.xsky130_asc_cap_mim_m3_1_9.x2.a     4.25263e-17
xbgr.xsky130_asc_cap_mim_m3_1_9.x2.b1     4.25263e-17
xbgr.xsky130_asc_cap_mim_m3_1_9.x3.a     4.25263e-17
xbgr.xsky130_asc_cap_mim_m3_1_9.x3.b1     4.25263e-17
xbgr.xsky130_asc_cap_mim_m3_1_9.x4.a     4.25263e-17
xbgr.xsky130_asc_cap_mim_m3_1_9.x4.b1     4.25263e-17
xbgr.xsky130_asc_cap_mim_m3_1_9.x5.a     4.25263e-17
xbgr.xsky130_asc_cap_mim_m3_1_9.x5.b1     4.25263e-17
xbgr.xsky130_asc_cap_mim_m3_1_9.x6.a     4.25263e-17
xbgr.xsky130_asc_cap_mim_m3_1_9.x6.b1     4.25263e-17
xbgr.xsky130_asc_cap_mim_m3_1_9.x7.a     4.25263e-17
xbgr.xsky130_asc_cap_mim_m3_1_9.x7.b1     4.25263e-17
xbgr.xsky130_asc_cap_mim_m3_1_9.x8.a     4.25263e-17
xbgr.xsky130_asc_cap_mim_m3_1_9.x8.b1     4.25263e-17
xbgr.xsky130_asc_cap_mim_m3_1_9.x9.a     4.25263e-17
xbgr.xsky130_asc_cap_mim_m3_1_9.x9.b1     4.25263e-17
xbgr.xsky130_asc_cap_mim_m3_1_9.x10.a     4.25263e-17
xbgr.xsky130_asc_cap_mim_m3_1_9.x10.b1     4.25263e-17
xbgr.xsky130_asc_cap_mim_m3_1_9.x11.a     4.25263e-17
xbgr.xsky130_asc_cap_mim_m3_1_9.x11.b1     4.25263e-17
xbgr.xsky130_asc_cap_mim_m3_1_9.x12.a     4.25263e-17
xbgr.xsky130_asc_cap_mim_m3_1_9.x12.b1     4.25263e-17
xbgr.xsky130_asc_cap_mim_m3_1_9.x13.a     4.25263e-17
xbgr.xsky130_asc_cap_mim_m3_1_9.x13.b1     4.25263e-17
xbgr.xsky130_asc_cap_mim_m3_1_9.x14.a     4.25263e-17
xbgr.xsky130_asc_cap_mim_m3_1_9.x14.b1     4.25263e-17
xbgr.xsky130_asc_cap_mim_m3_1_9.x15.a     4.25263e-17
xbgr.xsky130_asc_cap_mim_m3_1_9.x15.b1     4.25263e-17
xbgr.xsky130_asc_cap_mim_m3_1_9.x16.a     4.25263e-17
xbgr.xsky130_asc_cap_mim_m3_1_9.x16.b1     4.25263e-17
xbgr.xsky130_asc_cap_mim_m3_1_9.x17.a     4.25263e-17
xbgr.xsky130_asc_cap_mim_m3_1_9.x17.b1     4.25263e-17
xbgr.xsky130_asc_cap_mim_m3_1_9.x18.a     4.25263e-17
xbgr.xsky130_asc_cap_mim_m3_1_9.x18.b1     4.25263e-17
xbgr.xsky130_asc_cap_mim_m3_1_9.x19.a     4.25263e-17
xbgr.xsky130_asc_cap_mim_m3_1_9.x19.b1     4.25263e-17
xbgr.xsky130_asc_res_xhigh_po_2p85_1_4.x0.xsky130_fd_pr__res_xhigh_po_2p85.ra    -3.47851e-17
xbgr.xsky130_asc_res_xhigh_po_2p85_1_4.x1.xsky130_fd_pr__res_xhigh_po_2p85.ra    -3.48965e-17
xbgr.xsky130_asc_res_xhigh_po_2p85_1_5.x0.xsky130_fd_pr__res_xhigh_po_2p85.ra    -2.59853e-17
xbgr.xsky130_asc_res_xhigh_po_2p85_1_5.x1.xsky130_fd_pr__res_xhigh_po_2p85.ra    -1.97853e-17
xbgr.xsky130_asc_res_xhigh_po_2p85_1_6.x0.xsky130_fd_pr__res_xhigh_po_2p85.ra    -5.70603e-17
xbgr.xsky130_asc_res_xhigh_po_2p85_1_6.x1.xsky130_fd_pr__res_xhigh_po_2p85.ra    -4.13925e-17
vgate                                        0
v2#branch                         -7.11098e-21
vq2#branch                                   0
vr1#branch                                   0
vm3#branch                                   0
vm2#branch                                   0
vm1#branch                                   0
vr2#branch                                   0
vr4#branch                                   0
v1#branch                         -2.16465e-20


No. of Data Rows : 3048
binary raw file "./sims/gen5_0/post_temp0_bandgap_real_tran_gauss0.raw"
Reset re-loads circuit **.subckt tsmc_bandgap_real_tran_gauss

Circuit: **.subckt tsmc_bandgap_real_tran_gauss

Doing analysis at TEMP = 0.000000 and TNOM = 27.000000

Warning: singular matrix:  check nodes vgate and vgate

Note: Starting dynamic gmin stepping
Trying gmin =   1.0000E-03 Note: One successful gmin step
Trying gmin =   1.0000E-04 Note: One successful gmin step
Trying gmin =   1.0000E-05 Note: One successful gmin step
Trying gmin =   1.0000E-06 Note: One successful gmin step
Trying gmin =   1.0000E-07 Note: One successful gmin step
Trying gmin =   1.0000E-08 Note: One successful gmin step
Trying gmin =   1.0000E-09 Note: One successful gmin step
Trying gmin =   1.0000E-10 Note: One successful gmin step
Trying gmin =   1.0000E-11 Note: One successful gmin step
Trying gmin =   1.0000E-12 Note: One successful gmin step
Trying gmin =   1.0000E-12 Note: One successful gmin step
Warning: singular matrix:  check nodes vgate and vgate

Warning: Dynamic gmin stepping failed
Note: Starting true gmin stepping
Trying gmin =   1.0000E-03 Warning: singular matrix:  check nodes vgate and vgate

Warning: Further gmin increment
Trying gmin =   5.6234E-03 Warning: singular matrix:  check nodes vgate and vgate

Warning: Further gmin increment
Trying gmin =   8.6596E-03 Warning: singular matrix:  check nodes vgate and vgate

Warning: Further gmin increment
Trying gmin =   9.6466E-03 Warning: singular matrix:  check nodes vgate and vgate

Warning: Further gmin increment
Trying gmin =   9.9105E-03 Warning: singular matrix:  check nodes vgate and vgate

Warning: Further gmin increment
Trying gmin =   9.9775E-03 Warning: singular matrix:  check nodes vgate and vgate

Warning: Further gmin increment
Trying gmin =   9.9944E-03 Warning: singular matrix:  check nodes vgate and vgate

Warning: Further gmin increment
Trying gmin =   9.9986E-03 Warning: singular matrix:  check nodes vgate and vgate

Warning: Further gmin increment
Trying gmin =   9.9996E-03 Warning: singular matrix:  check nodes vgate and vgate

Warning: Last gmin step failed
Warning: singular matrix:  check nodes vgate and vgate

Warning: True gmin stepping failed
Note: Starting source stepping
Supplies reduced to   0.0000% Warning: singular matrix:  check nodes vgate and vgate


Trying gmin =   1.0000E-02 Note: One successful gmin step
Trying gmin =   1.0000E-03 Note: One successful gmin step
Trying gmin =   1.0000E-04 Note: One successful gmin step
Trying gmin =   1.0000E-05 Note: One successful gmin step
Trying gmin =   1.0000E-06 Note: One successful gmin step
Trying gmin =   1.0000E-07 Note: One successful gmin step
Trying gmin =   1.0000E-08 Note: One successful gmin step
Trying gmin =   1.0000E-09 Note: One successful gmin step
Trying gmin =   1.0000E-10 Note: One successful gmin step
Trying gmin =   1.0000E-11 Note: One successful gmin step
Trying gmin =   1.0000E-12 Note: One successful gmin step
Note: One successful source step
Supplies reduced to   0.1000% Warning: singular matrix:  check nodes vgate and vgate

Supplies reduced to   0.0000% Warning: singular matrix:  check nodes vgate and vgate

Warning: source stepping failed
Note: Transient op started
Note: Transient op finished successfully

Initial Transient Solution
--------------------------

Node                                   Voltage
----                                   -------
vdd                                          0
vb                                 1.79437e-17
net2                               1.79437e-17
net1                               1.79437e-17
net5                               7.82093e-18
va                                 7.82093e-18
net4                               1.79437e-17
net6                               9.74035e-17
vbg                                9.74035e-17
net3                               7.82093e-18
veb                                7.82093e-18
xbgr.xsky130_asc_res_xhigh_po_2p85_1_7.x0.xsky130_fd_pr__res_xhigh_po_2p85.ra     1.18895e-17
xbgr.sky130_asc_res_xhigh_po_2p85_1_7/rin     1.20229e-17
xbgr.xsky130_asc_res_xhigh_po_2p85_1_7.x1.xsky130_fd_pr__res_xhigh_po_2p85.ra     1.34383e-19
xbgr.xsky130_asc_res_xhigh_po_2p85_1_8.x0.xsky130_fd_pr__res_xhigh_po_2p85.ra      3.4538e-17
xbgr.sky130_asc_res_xhigh_po_2p85_1_8/rin     3.46581e-17
xbgr.xsky130_asc_res_xhigh_po_2p85_1_8.x1.xsky130_fd_pr__res_xhigh_po_2p85.ra     2.38219e-17
xbgr.sky130_asc_res_xhigh_po_2p85_1_9/rin     2.36978e-17
xbgr.xsky130_asc_res_xhigh_po_2p85_1_9.x0.xsky130_fd_pr__res_xhigh_po_2p85.ra     2.35689e-17
xbgr.xsky130_asc_res_xhigh_po_2p85_1_9.x1.xsky130_fd_pr__res_xhigh_po_2p85.ra     1.21541e-17
xbgr.sky130_asc_cap_mim_m3_1_4/cout     9.78927e-16
xbgr.xsky130_asc_res_xhigh_po_2p85_1_30.x0.xsky130_fd_pr__res_xhigh_po_2p85.ra     1.48501e-17
xbgr.sky130_asc_res_xhigh_po_2p85_1_30/rin     1.48385e-17
xbgr.xsky130_asc_res_xhigh_po_2p85_1_30.x1.xsky130_fd_pr__res_xhigh_po_2p85.ra     1.78861e-17
xbgr.xsky130_asc_res_xhigh_po_2p85_1_20.x0.xsky130_fd_pr__res_xhigh_po_2p85.ra     1.48186e-17
xbgr.sky130_asc_res_xhigh_po_2p85_1_20/rin       1.482e-17
xbgr.xsky130_asc_res_xhigh_po_2p85_1_20.x1.xsky130_fd_pr__res_xhigh_po_2p85.ra     1.48367e-17
xbgr.sky130_asc_res_xhigh_po_2p85_1_13/rout    -2.22859e-18
xbgr.xsky130_asc_res_xhigh_po_2p85_1_10.x0.xsky130_fd_pr__res_xhigh_po_2p85.ra     9.72873e-17
xbgr.xsky130_asc_res_xhigh_po_2p85_1_10.x1.xsky130_fd_pr__res_xhigh_po_2p85.ra     8.62192e-17
xbgr.sky130_asc_res_xhigh_po_2p85_1_3/rin     8.60832e-17
xbgr.xsky130_asc_res_xhigh_po_2p85_1_21.x0.xsky130_fd_pr__res_xhigh_po_2p85.ra      3.6255e-18
xbgr.sky130_asc_res_xhigh_po_2p85_1_21/rin     3.63248e-18
xbgr.xsky130_asc_res_xhigh_po_2p85_1_21.x1.xsky130_fd_pr__res_xhigh_po_2p85.ra     3.01827e-18
xbgr.sky130_asc_res_xhigh_po_2p85_1_18/rin     3.01143e-18
xbgr.xsky130_asc_res_xhigh_po_2p85_2_0.x0.t1     2.65051e-21
xbgr.xsky130_asc_res_xhigh_po_2p85_2_0.x0.t2     5.97003e-19
xbgr.sky130_asc_res_xhigh_po_2p85_2_0/rin     1.07349e-18
xbgr.xsky130_asc_res_xhigh_po_2p85_2_0.x1.t1     1.07157e-18
xbgr.xsky130_asc_res_xhigh_po_2p85_2_0.x1.t2     6.01579e-19
xbgr.xsky130_asc_res_xhigh_po_2p85_1_11.x0.xsky130_fd_pr__res_xhigh_po_2p85.ra     5.07945e-18
xbgr.sky130_asc_res_xhigh_po_2p85_1_11/rin     5.10006e-18
xbgr.xsky130_asc_res_xhigh_po_2p85_1_11.x1.xsky130_fd_pr__res_xhigh_po_2p85.ra      3.3685e-18
xbgr.sky130_asc_res_xhigh_po_2p85_1_6/rin     3.35013e-18
xbgr.xsky130_asc_res_xhigh_po_2p85_1_22.x0.xsky130_fd_pr__res_xhigh_po_2p85.ra     1.77686e-17
xbgr.xsky130_asc_res_xhigh_po_2p85_1_22.x1.xsky130_fd_pr__res_xhigh_po_2p85.ra     4.69423e-18
xbgr.sky130_asc_res_xhigh_po_2p85_1_13/rin      4.5714e-18
xbgr.xsky130_asc_res_xhigh_po_2p85_2_1.x0.t1     6.21088e-21
xbgr.xsky130_asc_res_xhigh_po_2p85_2_1.x0.t2     7.91044e-19
xbgr.sky130_asc_res_xhigh_po_2p85_2_1/rin     1.34083e-18
xbgr.xsky130_asc_res_xhigh_po_2p85_2_1.x1.t1     1.33694e-18
xbgr.xsky130_asc_res_xhigh_po_2p85_2_1.x1.t2     8.01147e-19
xbgr.xsky130_asc_res_xhigh_po_2p85_1_12.x0.xsky130_fd_pr__res_xhigh_po_2p85.ra      1.2485e-17
xbgr.sky130_asc_res_xhigh_po_2p85_1_12/rin     1.25119e-17
xbgr.xsky130_asc_res_xhigh_po_2p85_1_12.x1.xsky130_fd_pr__res_xhigh_po_2p85.ra     1.00357e-17
xbgr.sky130_asc_res_xhigh_po_2p85_1_15/rin     1.00068e-17
xbgr.xsky130_asc_res_xhigh_po_2p85_1_23.x0.xsky130_fd_pr__res_xhigh_po_2p85.ra     5.57586e-18
xbgr.sky130_asc_res_xhigh_po_2p85_1_23/rin     5.58316e-18
xbgr.xsky130_asc_res_xhigh_po_2p85_1_23.x1.xsky130_fd_pr__res_xhigh_po_2p85.ra     4.93434e-18
xbgr.sky130_asc_res_xhigh_po_2p85_1_29/rin     4.92702e-18
xbgr.xsky130_asc_res_xhigh_po_2p85_1_13.x0.xsky130_fd_pr__res_xhigh_po_2p85.ra     4.48473e-18
xbgr.xsky130_asc_res_xhigh_po_2p85_1_13.x1.xsky130_fd_pr__res_xhigh_po_2p85.ra    -2.16378e-18
xbgr.xsky130_asc_res_xhigh_po_2p85_1_24.x0.xsky130_fd_pr__res_xhigh_po_2p85.ra      6.8984e-18
xbgr.sky130_asc_res_xhigh_po_2p85_1_24/rin     6.90605e-18
xbgr.xsky130_asc_res_xhigh_po_2p85_1_24.x1.xsky130_fd_pr__res_xhigh_po_2p85.ra     6.24213e-18
xbgr.sky130_asc_res_xhigh_po_2p85_1_27/rin     6.23484e-18
xbgr.xsky130_asc_res_xhigh_po_2p85_1_14.x0.xsky130_fd_pr__res_xhigh_po_2p85.ra     7.38423e-18
xbgr.sky130_asc_res_xhigh_po_2p85_1_14/rin      7.4111e-18
xbgr.xsky130_asc_res_xhigh_po_2p85_1_14.x1.xsky130_fd_pr__res_xhigh_po_2p85.ra     5.12467e-18
xbgr.xsky130_asc_res_xhigh_po_2p85_1_25.x0.xsky130_fd_pr__res_xhigh_po_2p85.ra     4.26604e-18
xbgr.sky130_asc_res_xhigh_po_2p85_1_25/rin     4.27322e-18
xbgr.xsky130_asc_res_xhigh_po_2p85_1_25.x1.xsky130_fd_pr__res_xhigh_po_2p85.ra     3.63957e-18
xbgr.sky130_asc_nfet_01v8_lvt_1_1/gate     -1.4726e-15
xbgr.xsky130_asc_res_xhigh_po_2p85_1_15.x0.xsky130_fd_pr__res_xhigh_po_2p85.ra     9.97731e-18
xbgr.xsky130_asc_res_xhigh_po_2p85_1_15.x1.xsky130_fd_pr__res_xhigh_po_2p85.ra     7.43948e-18
xbgr.xsky130_asc_res_xhigh_po_2p85_1_26.x0.xsky130_fd_pr__res_xhigh_po_2p85.ra     2.36238e-18
xbgr.sky130_asc_res_xhigh_po_2p85_1_26/rin     2.36957e-18
xbgr.xsky130_asc_res_xhigh_po_2p85_1_26.x1.xsky130_fd_pr__res_xhigh_po_2p85.ra     1.72457e-18
xbgr.sky130_asc_res_xhigh_po_2p85_1_28/rin     1.71723e-18
xbgr.xsky130_asc_res_xhigh_po_2p85_1_16.x0.xsky130_fd_pr__res_xhigh_po_2p85.ra     1.42911e-17
xbgr.sky130_asc_res_xhigh_po_2p85_1_16/rin      1.4309e-17
xbgr.xsky130_asc_res_xhigh_po_2p85_1_16.x1.xsky130_fd_pr__res_xhigh_po_2p85.ra      1.2534e-17
xbgr.xsky130_asc_res_xhigh_po_2p85_1_27.x0.xsky130_fd_pr__res_xhigh_po_2p85.ra     6.22758e-18
xbgr.xsky130_asc_res_xhigh_po_2p85_1_27.x1.xsky130_fd_pr__res_xhigh_po_2p85.ra     5.59042e-18
xbgr.xsky130_asc_res_xhigh_po_2p85_1_17.x0.xsky130_fd_pr__res_xhigh_po_2p85.ra      7.8097e-18
xbgr.xsky130_asc_res_xhigh_po_2p85_1_17.x1.xsky130_fd_pr__res_xhigh_po_2p85.ra      6.9152e-18
xbgr.xsky130_asc_res_xhigh_po_2p85_1_28.x0.xsky130_fd_pr__res_xhigh_po_2p85.ra     1.71002e-18
xbgr.xsky130_asc_res_xhigh_po_2p85_1_28.x1.xsky130_fd_pr__res_xhigh_po_2p85.ra     1.08062e-18
porst                                        0
xbgr.xsky130_asc_res_xhigh_po_2p85_1_18.x0.xsky130_fd_pr__res_xhigh_po_2p85.ra      3.0044e-18
xbgr.xsky130_asc_res_xhigh_po_2p85_1_18.x1.xsky130_fd_pr__res_xhigh_po_2p85.ra     2.37684e-18
xbgr.sky130_asc_pfet_01v8_lvt_6_1/gate     -5.0964e-15
xbgr.xsky130_asc_res_xhigh_po_2p85_1_29.x0.xsky130_fd_pr__res_xhigh_po_2p85.ra     4.91972e-18
xbgr.xsky130_asc_res_xhigh_po_2p85_1_29.x1.xsky130_fd_pr__res_xhigh_po_2p85.ra     4.28048e-18
xbgr.sky130_asc_nfet_01v8_lvt_1_1/drain    -6.20332e-16
xbgr.xsky130_asc_res_xhigh_po_2p85_1_19.x0.xsky130_fd_pr__res_xhigh_po_2p85.ra      1.4817e-17
xbgr.xsky130_asc_res_xhigh_po_2p85_1_19.x1.xsky130_fd_pr__res_xhigh_po_2p85.ra     1.43174e-17
xbgr.xsky130_asc_cap_mim_m3_1_0.x0.a     3.75062e-23
xbgr.xsky130_asc_cap_mim_m3_1_0.x0.b1     3.21269e-23
xbgr.xsky130_asc_cap_mim_m3_1_0.x1.a     3.75062e-23
xbgr.xsky130_asc_cap_mim_m3_1_0.x1.b1     3.21269e-23
xbgr.xsky130_asc_cap_mim_m3_1_0.x2.a     3.75062e-23
xbgr.xsky130_asc_cap_mim_m3_1_0.x2.b1     3.21269e-23
xbgr.xsky130_asc_cap_mim_m3_1_0.x3.a     3.75062e-23
xbgr.xsky130_asc_cap_mim_m3_1_0.x3.b1     3.21269e-23
xbgr.xsky130_asc_cap_mim_m3_1_0.x4.a     3.75062e-23
xbgr.xsky130_asc_cap_mim_m3_1_0.x4.b1     3.21269e-23
xbgr.xsky130_asc_cap_mim_m3_1_0.x5.a     3.75062e-23
xbgr.xsky130_asc_cap_mim_m3_1_0.x5.b1     3.21269e-23
xbgr.xsky130_asc_cap_mim_m3_1_0.x6.a     3.75062e-23
xbgr.xsky130_asc_cap_mim_m3_1_0.x6.b1     3.21269e-23
xbgr.xsky130_asc_cap_mim_m3_1_0.x7.a     3.75062e-23
xbgr.xsky130_asc_cap_mim_m3_1_0.x7.b1     3.21269e-23
xbgr.xsky130_asc_cap_mim_m3_1_0.x8.a     3.75062e-23
xbgr.xsky130_asc_cap_mim_m3_1_0.x8.b1     3.21269e-23
xbgr.xsky130_asc_cap_mim_m3_1_0.x9.a     3.75062e-23
xbgr.xsky130_asc_cap_mim_m3_1_0.x9.b1     3.21269e-23
xbgr.xsky130_asc_cap_mim_m3_1_0.x10.a     3.75062e-23
xbgr.xsky130_asc_cap_mim_m3_1_0.x10.b1     3.21269e-23
xbgr.xsky130_asc_cap_mim_m3_1_0.x11.a     3.75062e-23
xbgr.xsky130_asc_cap_mim_m3_1_0.x11.b1     3.21269e-23
xbgr.xsky130_asc_cap_mim_m3_1_0.x12.a     3.75062e-23
xbgr.xsky130_asc_cap_mim_m3_1_0.x12.b1     3.21269e-23
xbgr.xsky130_asc_cap_mim_m3_1_0.x13.a     3.75062e-23
xbgr.xsky130_asc_cap_mim_m3_1_0.x13.b1     3.21269e-23
xbgr.xsky130_asc_cap_mim_m3_1_0.x14.a     3.75062e-23
xbgr.xsky130_asc_cap_mim_m3_1_0.x14.b1     3.21269e-23
xbgr.xsky130_asc_cap_mim_m3_1_0.x15.a     3.75062e-23
xbgr.xsky130_asc_cap_mim_m3_1_0.x15.b1     3.21269e-23
xbgr.xsky130_asc_cap_mim_m3_1_0.x16.a     3.75062e-23
xbgr.xsky130_asc_cap_mim_m3_1_0.x16.b1     3.21269e-23
xbgr.xsky130_asc_cap_mim_m3_1_0.x17.a     3.75062e-23
xbgr.xsky130_asc_cap_mim_m3_1_0.x17.b1     3.21269e-23
xbgr.xsky130_asc_cap_mim_m3_1_0.x18.a     3.75062e-23
xbgr.xsky130_asc_cap_mim_m3_1_0.x18.b1     3.21269e-23
xbgr.xsky130_asc_cap_mim_m3_1_0.x19.a     3.75062e-23
xbgr.xsky130_asc_cap_mim_m3_1_0.x19.b1     3.21269e-23
xbgr.xsky130_asc_cap_mim_m3_1_1.x0.a     3.75062e-23
xbgr.xsky130_asc_cap_mim_m3_1_1.x0.b1     3.21269e-23
xbgr.xsky130_asc_cap_mim_m3_1_1.x1.a     3.75062e-23
xbgr.xsky130_asc_cap_mim_m3_1_1.x1.b1     3.21269e-23
xbgr.xsky130_asc_cap_mim_m3_1_1.x2.a     3.75062e-23
xbgr.xsky130_asc_cap_mim_m3_1_1.x2.b1     3.21269e-23
xbgr.xsky130_asc_cap_mim_m3_1_1.x3.a     3.75062e-23
xbgr.xsky130_asc_cap_mim_m3_1_1.x3.b1     3.21269e-23
xbgr.xsky130_asc_cap_mim_m3_1_1.x4.a     3.75062e-23
xbgr.xsky130_asc_cap_mim_m3_1_1.x4.b1     3.21269e-23
xbgr.xsky130_asc_cap_mim_m3_1_1.x5.a     3.75062e-23
xbgr.xsky130_asc_cap_mim_m3_1_1.x5.b1     3.21269e-23
xbgr.xsky130_asc_cap_mim_m3_1_1.x6.a     3.75062e-23
xbgr.xsky130_asc_cap_mim_m3_1_1.x6.b1     3.21269e-23
xbgr.xsky130_asc_cap_mim_m3_1_1.x7.a     3.75062e-23
xbgr.xsky130_asc_cap_mim_m3_1_1.x7.b1     3.21269e-23
xbgr.xsky130_asc_cap_mim_m3_1_1.x8.a     3.75062e-23
xbgr.xsky130_asc_cap_mim_m3_1_1.x8.b1     3.21269e-23
xbgr.xsky130_asc_cap_mim_m3_1_1.x9.a     3.75062e-23
xbgr.xsky130_asc_cap_mim_m3_1_1.x9.b1     3.21269e-23
xbgr.xsky130_asc_cap_mim_m3_1_1.x10.a     3.75062e-23
xbgr.xsky130_asc_cap_mim_m3_1_1.x10.b1     3.21269e-23
xbgr.xsky130_asc_cap_mim_m3_1_1.x11.a     3.75062e-23
xbgr.xsky130_asc_cap_mim_m3_1_1.x11.b1     3.21269e-23
xbgr.xsky130_asc_cap_mim_m3_1_1.x12.a     3.75062e-23
xbgr.xsky130_asc_cap_mim_m3_1_1.x12.b1     3.21269e-23
xbgr.xsky130_asc_cap_mim_m3_1_1.x13.a     3.75062e-23
xbgr.xsky130_asc_cap_mim_m3_1_1.x13.b1     3.21269e-23
xbgr.xsky130_asc_cap_mim_m3_1_1.x14.a     3.75062e-23
xbgr.xsky130_asc_cap_mim_m3_1_1.x14.b1     3.21269e-23
xbgr.xsky130_asc_cap_mim_m3_1_1.x15.a     3.75062e-23
xbgr.xsky130_asc_cap_mim_m3_1_1.x15.b1     3.21269e-23
xbgr.xsky130_asc_cap_mim_m3_1_1.x16.a     3.75062e-23
xbgr.xsky130_asc_cap_mim_m3_1_1.x16.b1     3.21269e-23
xbgr.xsky130_asc_cap_mim_m3_1_1.x17.a     3.75062e-23
xbgr.xsky130_asc_cap_mim_m3_1_1.x17.b1     3.21269e-23
xbgr.xsky130_asc_cap_mim_m3_1_1.x18.a     3.75062e-23
xbgr.xsky130_asc_cap_mim_m3_1_1.x18.b1     3.21269e-23
xbgr.xsky130_asc_cap_mim_m3_1_1.x19.a     3.75062e-23
xbgr.xsky130_asc_cap_mim_m3_1_1.x19.b1     3.21269e-23
xbgr.xsky130_asc_cap_mim_m3_1_2.x0.a     3.75062e-23
xbgr.xsky130_asc_cap_mim_m3_1_2.x0.b1     3.21269e-23
xbgr.xsky130_asc_cap_mim_m3_1_2.x1.a     3.75062e-23
xbgr.xsky130_asc_cap_mim_m3_1_2.x1.b1     3.21269e-23
xbgr.xsky130_asc_cap_mim_m3_1_2.x2.a     3.75062e-23
xbgr.xsky130_asc_cap_mim_m3_1_2.x2.b1     3.21269e-23
xbgr.xsky130_asc_cap_mim_m3_1_2.x3.a     3.75062e-23
xbgr.xsky130_asc_cap_mim_m3_1_2.x3.b1     3.21269e-23
xbgr.xsky130_asc_cap_mim_m3_1_2.x4.a     3.75062e-23
xbgr.xsky130_asc_cap_mim_m3_1_2.x4.b1     3.21269e-23
xbgr.xsky130_asc_cap_mim_m3_1_2.x5.a     3.75062e-23
xbgr.xsky130_asc_cap_mim_m3_1_2.x5.b1     3.21269e-23
xbgr.xsky130_asc_cap_mim_m3_1_2.x6.a     3.75062e-23
xbgr.xsky130_asc_cap_mim_m3_1_2.x6.b1     3.21269e-23
xbgr.xsky130_asc_cap_mim_m3_1_2.x7.a     3.75062e-23
xbgr.xsky130_asc_cap_mim_m3_1_2.x7.b1     3.21269e-23
xbgr.xsky130_asc_cap_mim_m3_1_2.x8.a     3.75062e-23
xbgr.xsky130_asc_cap_mim_m3_1_2.x8.b1     3.21269e-23
xbgr.xsky130_asc_cap_mim_m3_1_2.x9.a     3.75062e-23
xbgr.xsky130_asc_cap_mim_m3_1_2.x9.b1     3.21269e-23
xbgr.xsky130_asc_cap_mim_m3_1_2.x10.a     3.75062e-23
xbgr.xsky130_asc_cap_mim_m3_1_2.x10.b1     3.21269e-23
xbgr.xsky130_asc_cap_mim_m3_1_2.x11.a     3.75062e-23
xbgr.xsky130_asc_cap_mim_m3_1_2.x11.b1     3.21269e-23
xbgr.xsky130_asc_cap_mim_m3_1_2.x12.a     3.75062e-23
xbgr.xsky130_asc_cap_mim_m3_1_2.x12.b1     3.21269e-23
xbgr.xsky130_asc_cap_mim_m3_1_2.x13.a     3.75062e-23
xbgr.xsky130_asc_cap_mim_m3_1_2.x13.b1     3.21269e-23
xbgr.xsky130_asc_cap_mim_m3_1_2.x14.a     3.75062e-23
xbgr.xsky130_asc_cap_mim_m3_1_2.x14.b1     3.21269e-23
xbgr.xsky130_asc_cap_mim_m3_1_2.x15.a     3.75062e-23
xbgr.xsky130_asc_cap_mim_m3_1_2.x15.b1     3.21269e-23
xbgr.xsky130_asc_cap_mim_m3_1_2.x16.a     3.75062e-23
xbgr.xsky130_asc_cap_mim_m3_1_2.x16.b1     3.21269e-23
xbgr.xsky130_asc_cap_mim_m3_1_2.x17.a     3.75062e-23
xbgr.xsky130_asc_cap_mim_m3_1_2.x17.b1     3.21269e-23
xbgr.xsky130_asc_cap_mim_m3_1_2.x18.a     3.75062e-23
xbgr.xsky130_asc_cap_mim_m3_1_2.x18.b1     3.21269e-23
xbgr.xsky130_asc_cap_mim_m3_1_2.x19.a     3.75062e-23
xbgr.xsky130_asc_cap_mim_m3_1_2.x19.b1     3.21269e-23
xbgr.xsky130_asc_cap_mim_m3_1_3.x0.a     3.75062e-23
xbgr.xsky130_asc_cap_mim_m3_1_3.x0.b1     3.21269e-23
xbgr.xsky130_asc_cap_mim_m3_1_3.x1.a     3.75062e-23
xbgr.xsky130_asc_cap_mim_m3_1_3.x1.b1     3.21269e-23
xbgr.xsky130_asc_cap_mim_m3_1_3.x2.a     3.75062e-23
xbgr.xsky130_asc_cap_mim_m3_1_3.x2.b1     3.21269e-23
xbgr.xsky130_asc_cap_mim_m3_1_3.x3.a     3.75062e-23
xbgr.xsky130_asc_cap_mim_m3_1_3.x3.b1     3.21269e-23
xbgr.xsky130_asc_cap_mim_m3_1_3.x4.a     3.75062e-23
xbgr.xsky130_asc_cap_mim_m3_1_3.x4.b1     3.21269e-23
xbgr.xsky130_asc_cap_mim_m3_1_3.x5.a     3.75062e-23
xbgr.xsky130_asc_cap_mim_m3_1_3.x5.b1     3.21269e-23
xbgr.xsky130_asc_cap_mim_m3_1_3.x6.a     3.75062e-23
xbgr.xsky130_asc_cap_mim_m3_1_3.x6.b1     3.21269e-23
xbgr.xsky130_asc_cap_mim_m3_1_3.x7.a     3.75062e-23
xbgr.xsky130_asc_cap_mim_m3_1_3.x7.b1     3.21269e-23
xbgr.xsky130_asc_cap_mim_m3_1_3.x8.a     3.75062e-23
xbgr.xsky130_asc_cap_mim_m3_1_3.x8.b1     3.21269e-23
xbgr.xsky130_asc_cap_mim_m3_1_3.x9.a     3.75062e-23
xbgr.xsky130_asc_cap_mim_m3_1_3.x9.b1     3.21269e-23
xbgr.xsky130_asc_cap_mim_m3_1_3.x10.a     3.75062e-23
xbgr.xsky130_asc_cap_mim_m3_1_3.x10.b1     3.21269e-23
xbgr.xsky130_asc_cap_mim_m3_1_3.x11.a     3.75062e-23
xbgr.xsky130_asc_cap_mim_m3_1_3.x11.b1     3.21269e-23
xbgr.xsky130_asc_cap_mim_m3_1_3.x12.a     3.75062e-23
xbgr.xsky130_asc_cap_mim_m3_1_3.x12.b1     3.21269e-23
xbgr.xsky130_asc_cap_mim_m3_1_3.x13.a     3.75062e-23
xbgr.xsky130_asc_cap_mim_m3_1_3.x13.b1     3.21269e-23
xbgr.xsky130_asc_cap_mim_m3_1_3.x14.a     3.75062e-23
xbgr.xsky130_asc_cap_mim_m3_1_3.x14.b1     3.21269e-23
xbgr.xsky130_asc_cap_mim_m3_1_3.x15.a     3.75062e-23
xbgr.xsky130_asc_cap_mim_m3_1_3.x15.b1     3.21269e-23
xbgr.xsky130_asc_cap_mim_m3_1_3.x16.a     3.75062e-23
xbgr.xsky130_asc_cap_mim_m3_1_3.x16.b1     3.21269e-23
xbgr.xsky130_asc_cap_mim_m3_1_3.x17.a     3.75062e-23
xbgr.xsky130_asc_cap_mim_m3_1_3.x17.b1     3.21269e-23
xbgr.xsky130_asc_cap_mim_m3_1_3.x18.a     3.75062e-23
xbgr.xsky130_asc_cap_mim_m3_1_3.x18.b1     3.21269e-23
xbgr.xsky130_asc_cap_mim_m3_1_3.x19.a     3.75062e-23
xbgr.xsky130_asc_cap_mim_m3_1_3.x19.b1     3.21269e-23
xbgr.xsky130_asc_cap_mim_m3_1_4.x0.a     3.75062e-23
xbgr.xsky130_asc_cap_mim_m3_1_4.x0.b1     3.21269e-23
xbgr.xsky130_asc_cap_mim_m3_1_4.x1.a     3.75062e-23
xbgr.xsky130_asc_cap_mim_m3_1_4.x1.b1     3.21269e-23
xbgr.xsky130_asc_cap_mim_m3_1_4.x2.a     3.75062e-23
xbgr.xsky130_asc_cap_mim_m3_1_4.x2.b1     3.21269e-23
xbgr.xsky130_asc_cap_mim_m3_1_4.x3.a     3.75062e-23
xbgr.xsky130_asc_cap_mim_m3_1_4.x3.b1     3.21269e-23
xbgr.xsky130_asc_cap_mim_m3_1_4.x4.a     3.75062e-23
xbgr.xsky130_asc_cap_mim_m3_1_4.x4.b1     3.21269e-23
xbgr.xsky130_asc_cap_mim_m3_1_4.x5.a     3.75062e-23
xbgr.xsky130_asc_cap_mim_m3_1_4.x5.b1     3.21269e-23
xbgr.xsky130_asc_cap_mim_m3_1_4.x6.a     3.75062e-23
xbgr.xsky130_asc_cap_mim_m3_1_4.x6.b1     3.21269e-23
xbgr.xsky130_asc_cap_mim_m3_1_4.x7.a     3.75062e-23
xbgr.xsky130_asc_cap_mim_m3_1_4.x7.b1     3.21269e-23
xbgr.xsky130_asc_cap_mim_m3_1_4.x8.a     3.75062e-23
xbgr.xsky130_asc_cap_mim_m3_1_4.x8.b1     3.21269e-23
xbgr.xsky130_asc_cap_mim_m3_1_4.x9.a     3.75062e-23
xbgr.xsky130_asc_cap_mim_m3_1_4.x9.b1     3.21269e-23
xbgr.xsky130_asc_cap_mim_m3_1_4.x10.a     3.75062e-23
xbgr.xsky130_asc_cap_mim_m3_1_4.x10.b1     3.21269e-23
xbgr.xsky130_asc_cap_mim_m3_1_4.x11.a     3.75062e-23
xbgr.xsky130_asc_cap_mim_m3_1_4.x11.b1     3.21269e-23
xbgr.xsky130_asc_cap_mim_m3_1_4.x12.a     3.75062e-23
xbgr.xsky130_asc_cap_mim_m3_1_4.x12.b1     3.21269e-23
xbgr.xsky130_asc_cap_mim_m3_1_4.x13.a     3.75062e-23
xbgr.xsky130_asc_cap_mim_m3_1_4.x13.b1     3.21269e-23
xbgr.xsky130_asc_cap_mim_m3_1_4.x14.a     3.75062e-23
xbgr.xsky130_asc_cap_mim_m3_1_4.x14.b1     3.21269e-23
xbgr.xsky130_asc_cap_mim_m3_1_4.x15.a     3.75062e-23
xbgr.xsky130_asc_cap_mim_m3_1_4.x15.b1     3.21269e-23
xbgr.xsky130_asc_cap_mim_m3_1_4.x16.a     3.75062e-23
xbgr.xsky130_asc_cap_mim_m3_1_4.x16.b1     3.21269e-23
xbgr.xsky130_asc_cap_mim_m3_1_4.x17.a     3.75062e-23
xbgr.xsky130_asc_cap_mim_m3_1_4.x17.b1     3.21269e-23
xbgr.xsky130_asc_cap_mim_m3_1_4.x18.a     3.75062e-23
xbgr.xsky130_asc_cap_mim_m3_1_4.x18.b1     3.21269e-23
xbgr.xsky130_asc_cap_mim_m3_1_4.x19.a     3.75062e-23
xbgr.xsky130_asc_cap_mim_m3_1_4.x19.b1     3.21269e-23
xbgr.xsky130_asc_cap_mim_m3_1_5.x0.a     7.82092e-18
xbgr.xsky130_asc_cap_mim_m3_1_5.x0.b1     7.82093e-18
xbgr.xsky130_asc_cap_mim_m3_1_5.x1.a     7.82092e-18
xbgr.xsky130_asc_cap_mim_m3_1_5.x1.b1     7.82093e-18
xbgr.xsky130_asc_cap_mim_m3_1_5.x2.a     7.82092e-18
xbgr.xsky130_asc_cap_mim_m3_1_5.x2.b1     7.82093e-18
xbgr.xsky130_asc_cap_mim_m3_1_5.x3.a     7.82092e-18
xbgr.xsky130_asc_cap_mim_m3_1_5.x3.b1     7.82093e-18
xbgr.xsky130_asc_cap_mim_m3_1_5.x4.a     7.82092e-18
xbgr.xsky130_asc_cap_mim_m3_1_5.x4.b1     7.82093e-18
xbgr.xsky130_asc_cap_mim_m3_1_5.x5.a     7.82092e-18
xbgr.xsky130_asc_cap_mim_m3_1_5.x5.b1     7.82093e-18
xbgr.xsky130_asc_cap_mim_m3_1_5.x6.a     7.82092e-18
xbgr.xsky130_asc_cap_mim_m3_1_5.x6.b1     7.82093e-18
xbgr.xsky130_asc_cap_mim_m3_1_5.x7.a     7.82092e-18
xbgr.xsky130_asc_cap_mim_m3_1_5.x7.b1     7.82093e-18
xbgr.xsky130_asc_cap_mim_m3_1_5.x8.a     7.82092e-18
xbgr.xsky130_asc_cap_mim_m3_1_5.x8.b1     7.82093e-18
xbgr.xsky130_asc_cap_mim_m3_1_5.x9.a     7.82092e-18
xbgr.xsky130_asc_cap_mim_m3_1_5.x9.b1     7.82093e-18
xbgr.xsky130_asc_cap_mim_m3_1_5.x10.a     7.82092e-18
xbgr.xsky130_asc_cap_mim_m3_1_5.x10.b1     7.82093e-18
xbgr.xsky130_asc_cap_mim_m3_1_5.x11.a     7.82092e-18
xbgr.xsky130_asc_cap_mim_m3_1_5.x11.b1     7.82093e-18
xbgr.xsky130_asc_cap_mim_m3_1_5.x12.a     7.82092e-18
xbgr.xsky130_asc_cap_mim_m3_1_5.x12.b1     7.82093e-18
xbgr.xsky130_asc_cap_mim_m3_1_5.x13.a     7.82092e-18
xbgr.xsky130_asc_cap_mim_m3_1_5.x13.b1     7.82093e-18
xbgr.xsky130_asc_cap_mim_m3_1_5.x14.a     7.82092e-18
xbgr.xsky130_asc_cap_mim_m3_1_5.x14.b1     7.82093e-18
xbgr.xsky130_asc_cap_mim_m3_1_5.x15.a     7.82092e-18
xbgr.xsky130_asc_cap_mim_m3_1_5.x15.b1     7.82093e-18
xbgr.xsky130_asc_cap_mim_m3_1_5.x16.a     7.82092e-18
xbgr.xsky130_asc_cap_mim_m3_1_5.x16.b1     7.82093e-18
xbgr.xsky130_asc_cap_mim_m3_1_5.x17.a     7.82092e-18
xbgr.xsky130_asc_cap_mim_m3_1_5.x17.b1     7.82093e-18
xbgr.xsky130_asc_cap_mim_m3_1_5.x18.a     7.82092e-18
xbgr.xsky130_asc_cap_mim_m3_1_5.x18.b1     7.82093e-18
xbgr.xsky130_asc_cap_mim_m3_1_5.x19.a     7.82092e-18
xbgr.xsky130_asc_cap_mim_m3_1_5.x19.b1     7.82093e-18
xbgr.xsky130_asc_res_xhigh_po_2p85_1_0.x0.xsky130_fd_pr__res_xhigh_po_2p85.ra     5.42371e-17
xbgr.sky130_asc_res_xhigh_po_2p85_1_0/rin     5.43425e-17
xbgr.xsky130_asc_res_xhigh_po_2p85_1_0.x1.xsky130_fd_pr__res_xhigh_po_2p85.ra     4.48971e-17
xbgr.sky130_asc_res_xhigh_po_2p85_1_5/rin     4.47897e-17
xbgr.xsky130_asc_cap_mim_m3_1_6.x0.a     7.82092e-18
xbgr.xsky130_asc_cap_mim_m3_1_6.x0.b1     7.82093e-18
xbgr.xsky130_asc_cap_mim_m3_1_6.x1.a     7.82092e-18
xbgr.xsky130_asc_cap_mim_m3_1_6.x1.b1     7.82093e-18
xbgr.xsky130_asc_cap_mim_m3_1_6.x2.a     7.82092e-18
xbgr.xsky130_asc_cap_mim_m3_1_6.x2.b1     7.82093e-18
xbgr.xsky130_asc_cap_mim_m3_1_6.x3.a     7.82092e-18
xbgr.xsky130_asc_cap_mim_m3_1_6.x3.b1     7.82093e-18
xbgr.xsky130_asc_cap_mim_m3_1_6.x4.a     7.82092e-18
xbgr.xsky130_asc_cap_mim_m3_1_6.x4.b1     7.82093e-18
xbgr.xsky130_asc_cap_mim_m3_1_6.x5.a     7.82092e-18
xbgr.xsky130_asc_cap_mim_m3_1_6.x5.b1     7.82093e-18
xbgr.xsky130_asc_cap_mim_m3_1_6.x6.a     7.82092e-18
xbgr.xsky130_asc_cap_mim_m3_1_6.x6.b1     7.82093e-18
xbgr.xsky130_asc_cap_mim_m3_1_6.x7.a     7.82092e-18
xbgr.xsky130_asc_cap_mim_m3_1_6.x7.b1     7.82093e-18
xbgr.xsky130_asc_cap_mim_m3_1_6.x8.a     7.82092e-18
xbgr.xsky130_asc_cap_mim_m3_1_6.x8.b1     7.82093e-18
xbgr.xsky130_asc_cap_mim_m3_1_6.x9.a     7.82092e-18
xbgr.xsky130_asc_cap_mim_m3_1_6.x9.b1     7.82093e-18
xbgr.xsky130_asc_cap_mim_m3_1_6.x10.a     7.82092e-18
xbgr.xsky130_asc_cap_mim_m3_1_6.x10.b1     7.82093e-18
xbgr.xsky130_asc_cap_mim_m3_1_6.x11.a     7.82092e-18
xbgr.xsky130_asc_cap_mim_m3_1_6.x11.b1     7.82093e-18
xbgr.xsky130_asc_cap_mim_m3_1_6.x12.a     7.82092e-18
xbgr.xsky130_asc_cap_mim_m3_1_6.x12.b1     7.82093e-18
xbgr.xsky130_asc_cap_mim_m3_1_6.x13.a     7.82092e-18
xbgr.xsky130_asc_cap_mim_m3_1_6.x13.b1     7.82093e-18
xbgr.xsky130_asc_cap_mim_m3_1_6.x14.a     7.82092e-18
xbgr.xsky130_asc_cap_mim_m3_1_6.x14.b1     7.82093e-18
xbgr.xsky130_asc_cap_mim_m3_1_6.x15.a     7.82092e-18
xbgr.xsky130_asc_cap_mim_m3_1_6.x15.b1     7.82093e-18
xbgr.xsky130_asc_cap_mim_m3_1_6.x16.a     7.82092e-18
xbgr.xsky130_asc_cap_mim_m3_1_6.x16.b1     7.82093e-18
xbgr.xsky130_asc_cap_mim_m3_1_6.x17.a     7.82092e-18
xbgr.xsky130_asc_cap_mim_m3_1_6.x17.b1     7.82093e-18
xbgr.xsky130_asc_cap_mim_m3_1_6.x18.a     7.82092e-18
xbgr.xsky130_asc_cap_mim_m3_1_6.x18.b1     7.82093e-18
xbgr.xsky130_asc_cap_mim_m3_1_6.x19.a     7.82092e-18
xbgr.xsky130_asc_cap_mim_m3_1_6.x19.b1     7.82093e-18
xbgr.xsky130_asc_res_xhigh_po_2p85_1_1.x0.xsky130_fd_pr__res_xhigh_po_2p85.ra     6.37515e-17
xbgr.sky130_asc_res_xhigh_po_2p85_1_1/rin     6.38584e-17
xbgr.xsky130_asc_res_xhigh_po_2p85_1_1.x1.xsky130_fd_pr__res_xhigh_po_2p85.ra     5.44476e-17
xbgr.xsky130_asc_cap_mim_m3_1_7.x0.a     7.82092e-18
xbgr.xsky130_asc_cap_mim_m3_1_7.x0.b1     7.82093e-18
xbgr.xsky130_asc_cap_mim_m3_1_7.x1.a     7.82092e-18
xbgr.xsky130_asc_cap_mim_m3_1_7.x1.b1     7.82093e-18
xbgr.xsky130_asc_cap_mim_m3_1_7.x2.a     7.82092e-18
xbgr.xsky130_asc_cap_mim_m3_1_7.x2.b1     7.82093e-18
xbgr.xsky130_asc_cap_mim_m3_1_7.x3.a     7.82092e-18
xbgr.xsky130_asc_cap_mim_m3_1_7.x3.b1     7.82093e-18
xbgr.xsky130_asc_cap_mim_m3_1_7.x4.a     7.82092e-18
xbgr.xsky130_asc_cap_mim_m3_1_7.x4.b1     7.82093e-18
xbgr.xsky130_asc_cap_mim_m3_1_7.x5.a     7.82092e-18
xbgr.xsky130_asc_cap_mim_m3_1_7.x5.b1     7.82093e-18
xbgr.xsky130_asc_cap_mim_m3_1_7.x6.a     7.82092e-18
xbgr.xsky130_asc_cap_mim_m3_1_7.x6.b1     7.82093e-18
xbgr.xsky130_asc_cap_mim_m3_1_7.x7.a     7.82092e-18
xbgr.xsky130_asc_cap_mim_m3_1_7.x7.b1     7.82093e-18
xbgr.xsky130_asc_cap_mim_m3_1_7.x8.a     7.82092e-18
xbgr.xsky130_asc_cap_mim_m3_1_7.x8.b1     7.82093e-18
xbgr.xsky130_asc_cap_mim_m3_1_7.x9.a     7.82092e-18
xbgr.xsky130_asc_cap_mim_m3_1_7.x9.b1     7.82093e-18
xbgr.xsky130_asc_cap_mim_m3_1_7.x10.a     7.82092e-18
xbgr.xsky130_asc_cap_mim_m3_1_7.x10.b1     7.82093e-18
xbgr.xsky130_asc_cap_mim_m3_1_7.x11.a     7.82092e-18
xbgr.xsky130_asc_cap_mim_m3_1_7.x11.b1     7.82093e-18
xbgr.xsky130_asc_cap_mim_m3_1_7.x12.a     7.82092e-18
xbgr.xsky130_asc_cap_mim_m3_1_7.x12.b1     7.82093e-18
xbgr.xsky130_asc_cap_mim_m3_1_7.x13.a     7.82092e-18
xbgr.xsky130_asc_cap_mim_m3_1_7.x13.b1     7.82093e-18
xbgr.xsky130_asc_cap_mim_m3_1_7.x14.a     7.82092e-18
xbgr.xsky130_asc_cap_mim_m3_1_7.x14.b1     7.82093e-18
xbgr.xsky130_asc_cap_mim_m3_1_7.x15.a     7.82092e-18
xbgr.xsky130_asc_cap_mim_m3_1_7.x15.b1     7.82093e-18
xbgr.xsky130_asc_cap_mim_m3_1_7.x16.a     7.82092e-18
xbgr.xsky130_asc_cap_mim_m3_1_7.x16.b1     7.82093e-18
xbgr.xsky130_asc_cap_mim_m3_1_7.x17.a     7.82092e-18
xbgr.xsky130_asc_cap_mim_m3_1_7.x17.b1     7.82093e-18
xbgr.xsky130_asc_cap_mim_m3_1_7.x18.a     7.82092e-18
xbgr.xsky130_asc_cap_mim_m3_1_7.x18.b1     7.82093e-18
xbgr.xsky130_asc_cap_mim_m3_1_7.x19.a     7.82092e-18
xbgr.xsky130_asc_cap_mim_m3_1_7.x19.b1     7.82093e-18
xbgr.xsky130_asc_res_xhigh_po_2p85_1_2.x0.xsky130_fd_pr__res_xhigh_po_2p85.ra     2.08923e-18
xbgr.sky130_asc_res_xhigh_po_2p85_1_2/rin     2.09871e-18
xbgr.xsky130_asc_res_xhigh_po_2p85_1_2.x1.xsky130_fd_pr__res_xhigh_po_2p85.ra     1.34823e-18
xbgr.xsky130_asc_cap_mim_m3_1_8.x0.a     7.82092e-18
xbgr.xsky130_asc_cap_mim_m3_1_8.x0.b1     7.82093e-18
xbgr.xsky130_asc_cap_mim_m3_1_8.x1.a     7.82092e-18
xbgr.xsky130_asc_cap_mim_m3_1_8.x1.b1     7.82093e-18
xbgr.xsky130_asc_cap_mim_m3_1_8.x2.a     7.82092e-18
xbgr.xsky130_asc_cap_mim_m3_1_8.x2.b1     7.82093e-18
xbgr.xsky130_asc_cap_mim_m3_1_8.x3.a     7.82092e-18
xbgr.xsky130_asc_cap_mim_m3_1_8.x3.b1     7.82093e-18
xbgr.xsky130_asc_cap_mim_m3_1_8.x4.a     7.82092e-18
xbgr.xsky130_asc_cap_mim_m3_1_8.x4.b1     7.82093e-18
xbgr.xsky130_asc_cap_mim_m3_1_8.x5.a     7.82092e-18
xbgr.xsky130_asc_cap_mim_m3_1_8.x5.b1     7.82093e-18
xbgr.xsky130_asc_cap_mim_m3_1_8.x6.a     7.82092e-18
xbgr.xsky130_asc_cap_mim_m3_1_8.x6.b1     7.82093e-18
xbgr.xsky130_asc_cap_mim_m3_1_8.x7.a     7.82092e-18
xbgr.xsky130_asc_cap_mim_m3_1_8.x7.b1     7.82093e-18
xbgr.xsky130_asc_cap_mim_m3_1_8.x8.a     7.82092e-18
xbgr.xsky130_asc_cap_mim_m3_1_8.x8.b1     7.82093e-18
xbgr.xsky130_asc_cap_mim_m3_1_8.x9.a     7.82092e-18
xbgr.xsky130_asc_cap_mim_m3_1_8.x9.b1     7.82093e-18
xbgr.xsky130_asc_cap_mim_m3_1_8.x10.a     7.82092e-18
xbgr.xsky130_asc_cap_mim_m3_1_8.x10.b1     7.82093e-18
xbgr.xsky130_asc_cap_mim_m3_1_8.x11.a     7.82092e-18
xbgr.xsky130_asc_cap_mim_m3_1_8.x11.b1     7.82093e-18
xbgr.xsky130_asc_cap_mim_m3_1_8.x12.a     7.82092e-18
xbgr.xsky130_asc_cap_mim_m3_1_8.x12.b1     7.82093e-18
xbgr.xsky130_asc_cap_mim_m3_1_8.x13.a     7.82092e-18
xbgr.xsky130_asc_cap_mim_m3_1_8.x13.b1     7.82093e-18
xbgr.xsky130_asc_cap_mim_m3_1_8.x14.a     7.82092e-18
xbgr.xsky130_asc_cap_mim_m3_1_8.x14.b1     7.82093e-18
xbgr.xsky130_asc_cap_mim_m3_1_8.x15.a     7.82092e-18
xbgr.xsky130_asc_cap_mim_m3_1_8.x15.b1     7.82093e-18
xbgr.xsky130_asc_cap_mim_m3_1_8.x16.a     7.82092e-18
xbgr.xsky130_asc_cap_mim_m3_1_8.x16.b1     7.82093e-18
xbgr.xsky130_asc_cap_mim_m3_1_8.x17.a     7.82092e-18
xbgr.xsky130_asc_cap_mim_m3_1_8.x17.b1     7.82093e-18
xbgr.xsky130_asc_cap_mim_m3_1_8.x18.a     7.82092e-18
xbgr.xsky130_asc_cap_mim_m3_1_8.x18.b1     7.82093e-18
xbgr.xsky130_asc_cap_mim_m3_1_8.x19.a     7.82092e-18
xbgr.xsky130_asc_cap_mim_m3_1_8.x19.b1     7.82093e-18
xbgr.xsky130_asc_res_xhigh_po_2p85_1_3.x0.xsky130_fd_pr__res_xhigh_po_2p85.ra      8.5949e-17
xbgr.xsky130_asc_res_xhigh_po_2p85_1_3.x1.xsky130_fd_pr__res_xhigh_po_2p85.ra     7.44117e-17
xbgr.sky130_asc_res_xhigh_po_2p85_1_4/rin     7.42831e-17
xbgr.xsky130_asc_cap_mim_m3_1_9.x0.a     7.82092e-18
xbgr.xsky130_asc_cap_mim_m3_1_9.x0.b1     7.82093e-18
xbgr.xsky130_asc_cap_mim_m3_1_9.x1.a     7.82092e-18
xbgr.xsky130_asc_cap_mim_m3_1_9.x1.b1     7.82093e-18
xbgr.xsky130_asc_cap_mim_m3_1_9.x2.a     7.82092e-18
xbgr.xsky130_asc_cap_mim_m3_1_9.x2.b1     7.82093e-18
xbgr.xsky130_asc_cap_mim_m3_1_9.x3.a     7.82092e-18
xbgr.xsky130_asc_cap_mim_m3_1_9.x3.b1     7.82093e-18
xbgr.xsky130_asc_cap_mim_m3_1_9.x4.a     7.82092e-18
xbgr.xsky130_asc_cap_mim_m3_1_9.x4.b1     7.82093e-18
xbgr.xsky130_asc_cap_mim_m3_1_9.x5.a     7.82092e-18
xbgr.xsky130_asc_cap_mim_m3_1_9.x5.b1     7.82093e-18
xbgr.xsky130_asc_cap_mim_m3_1_9.x6.a     7.82092e-18
xbgr.xsky130_asc_cap_mim_m3_1_9.x6.b1     7.82093e-18
xbgr.xsky130_asc_cap_mim_m3_1_9.x7.a     7.82092e-18
xbgr.xsky130_asc_cap_mim_m3_1_9.x7.b1     7.82093e-18
xbgr.xsky130_asc_cap_mim_m3_1_9.x8.a     7.82092e-18
xbgr.xsky130_asc_cap_mim_m3_1_9.x8.b1     7.82093e-18
xbgr.xsky130_asc_cap_mim_m3_1_9.x9.a     7.82092e-18
xbgr.xsky130_asc_cap_mim_m3_1_9.x9.b1     7.82093e-18
xbgr.xsky130_asc_cap_mim_m3_1_9.x10.a     7.82092e-18
xbgr.xsky130_asc_cap_mim_m3_1_9.x10.b1     7.82093e-18
xbgr.xsky130_asc_cap_mim_m3_1_9.x11.a     7.82092e-18
xbgr.xsky130_asc_cap_mim_m3_1_9.x11.b1     7.82093e-18
xbgr.xsky130_asc_cap_mim_m3_1_9.x12.a     7.82092e-18
xbgr.xsky130_asc_cap_mim_m3_1_9.x12.b1     7.82093e-18
xbgr.xsky130_asc_cap_mim_m3_1_9.x13.a     7.82092e-18
xbgr.xsky130_asc_cap_mim_m3_1_9.x13.b1     7.82093e-18
xbgr.xsky130_asc_cap_mim_m3_1_9.x14.a     7.82092e-18
xbgr.xsky130_asc_cap_mim_m3_1_9.x14.b1     7.82093e-18
xbgr.xsky130_asc_cap_mim_m3_1_9.x15.a     7.82092e-18
xbgr.xsky130_asc_cap_mim_m3_1_9.x15.b1     7.82093e-18
xbgr.xsky130_asc_cap_mim_m3_1_9.x16.a     7.82092e-18
xbgr.xsky130_asc_cap_mim_m3_1_9.x16.b1     7.82093e-18
xbgr.xsky130_asc_cap_mim_m3_1_9.x17.a     7.82092e-18
xbgr.xsky130_asc_cap_mim_m3_1_9.x17.b1     7.82093e-18
xbgr.xsky130_asc_cap_mim_m3_1_9.x18.a     7.82092e-18
xbgr.xsky130_asc_cap_mim_m3_1_9.x18.b1     7.82093e-18
xbgr.xsky130_asc_cap_mim_m3_1_9.x19.a     7.82092e-18
xbgr.xsky130_asc_cap_mim_m3_1_9.x19.b1     7.82093e-18
xbgr.xsky130_asc_res_xhigh_po_2p85_1_4.x0.xsky130_fd_pr__res_xhigh_po_2p85.ra      7.4164e-17
xbgr.xsky130_asc_res_xhigh_po_2p85_1_4.x1.xsky130_fd_pr__res_xhigh_po_2p85.ra     6.39715e-17
xbgr.xsky130_asc_res_xhigh_po_2p85_1_5.x0.xsky130_fd_pr__res_xhigh_po_2p85.ra     4.46788e-17
xbgr.xsky130_asc_res_xhigh_po_2p85_1_5.x1.xsky130_fd_pr__res_xhigh_po_2p85.ra     3.47729e-17
xbgr.xsky130_asc_res_xhigh_po_2p85_1_6.x0.xsky130_fd_pr__res_xhigh_po_2p85.ra     3.33501e-18
xbgr.xsky130_asc_res_xhigh_po_2p85_1_6.x1.xsky130_fd_pr__res_xhigh_po_2p85.ra     2.11146e-18
vgate                                        0
v2#branch                         -1.06773e-20
vq2#branch                                   0
vr1#branch                                   0
vm3#branch                                   0
vm2#branch                                   0
vm1#branch                                   0
vr2#branch                                   0
vr4#branch                                   0
v1#branch                         -6.12013e-20


No. of Data Rows : 3047
binary raw file "./sims/gen5_0/post_temp0_bandgap_real_tran_gauss1.raw"
Reset re-loads circuit **.subckt tsmc_bandgap_real_tran_gauss

Circuit: **.subckt tsmc_bandgap_real_tran_gauss

Doing analysis at TEMP = 0.000000 and TNOM = 27.000000

Warning: singular matrix:  check nodes vgate and vgate

Note: Starting dynamic gmin stepping
Trying gmin =   1.0000E-03 Note: One successful gmin step
Trying gmin =   1.0000E-04 Note: One successful gmin step
Trying gmin =   1.0000E-05 Note: One successful gmin step
Trying gmin =   1.0000E-06 Note: One successful gmin step
Trying gmin =   1.0000E-07 Note: One successful gmin step
Trying gmin =   1.0000E-08 Note: One successful gmin step
Trying gmin =   1.0000E-09 Note: One successful gmin step
Trying gmin =   1.0000E-10 Note: One successful gmin step
Trying gmin =   1.0000E-11 Note: One successful gmin step
Trying gmin =   1.0000E-12 Note: One successful gmin step
Trying gmin =   1.0000E-12 Note: One successful gmin step
Warning: singular matrix:  check nodes vgate and vgate

Warning: Dynamic gmin stepping failed
Note: Starting true gmin stepping
Trying gmin =   1.0000E-03 Warning: singular matrix:  check nodes vgate and vgate

Warning: Further gmin increment
Trying gmin =   5.6234E-03 Warning: singular matrix:  check nodes vgate and vgate

Warning: Further gmin increment
Trying gmin =   8.6596E-03 Warning: singular matrix:  check nodes vgate and vgate

Warning: Further gmin increment
Trying gmin =   9.6466E-03 Warning: singular matrix:  check nodes vgate and vgate

Warning: Further gmin increment
Trying gmin =   9.9105E-03 Warning: singular matrix:  check nodes vgate and vgate

Warning: Further gmin increment
Trying gmin =   9.9775E-03 Warning: singular matrix:  check nodes vgate and vgate

Warning: Further gmin increment
Trying gmin =   9.9944E-03 Warning: singular matrix:  check nodes vgate and vgate

Warning: Further gmin increment
Trying gmin =   9.9986E-03 Warning: singular matrix:  check nodes vgate and vgate

Warning: Further gmin increment
Trying gmin =   9.9996E-03 Warning: singular matrix:  check nodes vgate and vgate

Warning: Last gmin step failed
Warning: singular matrix:  check nodes vgate and vgate

Warning: True gmin stepping failed
Note: Starting source stepping
Supplies reduced to   0.0000% Warning: singular matrix:  check nodes vgate and vgate


Trying gmin =   1.0000E-02 Note: One successful gmin step
Trying gmin =   1.0000E-03 Note: One successful gmin step
Trying gmin =   1.0000E-04 Note: One successful gmin step
Trying gmin =   1.0000E-05 Note: One successful gmin step
Trying gmin =   1.0000E-06 Note: One successful gmin step
Trying gmin =   1.0000E-07 Note: One successful gmin step
Trying gmin =   1.0000E-08 Note: One successful gmin step
Trying gmin =   1.0000E-09 Note: One successful gmin step
Trying gmin =   1.0000E-10 Note: One successful gmin step
Trying gmin =   1.0000E-11 Note: One successful gmin step
Trying gmin =   1.0000E-12 Note: One successful gmin step
Note: One successful source step
Supplies reduced to   0.1000% Warning: singular matrix:  check nodes vgate and vgate

Supplies reduced to   0.0000% Warning: singular matrix:  check nodes vgate and vgate

Warning: source stepping failed
Note: Transient op started
Note: Transient op finished successfully

Initial Transient Solution
--------------------------

Node                                   Voltage
----                                   -------
vdd                                          0
vb                                -3.29486e-17
net2                              -3.29486e-17
net1                              -3.29486e-17
net5                               6.13844e-17
va                                 6.13844e-17
net4                              -3.29486e-17
net6                               1.40295e-17
vbg                                1.40295e-17
net3                               6.13844e-17
veb                                6.13844e-17
xbgr.xsky130_asc_res_xhigh_po_2p85_1_7.x0.xsky130_fd_pr__res_xhigh_po_2p85.ra     -2.7998e-18
xbgr.sky130_asc_res_xhigh_po_2p85_1_7/rin    -2.83144e-18
xbgr.xsky130_asc_res_xhigh_po_2p85_1_7.x1.xsky130_fd_pr__res_xhigh_po_2p85.ra    -3.14356e-20
xbgr.xsky130_asc_res_xhigh_po_2p85_1_8.x0.xsky130_fd_pr__res_xhigh_po_2p85.ra    -8.62861e-18
xbgr.sky130_asc_res_xhigh_po_2p85_1_8/rin    -8.66064e-18
xbgr.xsky130_asc_res_xhigh_po_2p85_1_8.x1.xsky130_fd_pr__res_xhigh_po_2p85.ra    -5.78155e-18
xbgr.sky130_asc_res_xhigh_po_2p85_1_9/rin    -5.74872e-18
xbgr.xsky130_asc_res_xhigh_po_2p85_1_9.x0.xsky130_fd_pr__res_xhigh_po_2p85.ra    -5.71598e-18
xbgr.xsky130_asc_res_xhigh_po_2p85_1_9.x1.xsky130_fd_pr__res_xhigh_po_2p85.ra    -2.86369e-18
xbgr.sky130_asc_cap_mim_m3_1_4/cout     2.00671e-15
xbgr.xsky130_asc_res_xhigh_po_2p85_1_30.x0.xsky130_fd_pr__res_xhigh_po_2p85.ra    -4.41241e-17
xbgr.sky130_asc_res_xhigh_po_2p85_1_30/rin    -4.41732e-17
xbgr.xsky130_asc_res_xhigh_po_2p85_1_30.x1.xsky130_fd_pr__res_xhigh_po_2p85.ra    -3.31495e-17
xbgr.xsky130_asc_res_xhigh_po_2p85_1_20.x0.xsky130_fd_pr__res_xhigh_po_2p85.ra    -3.69181e-17
xbgr.sky130_asc_res_xhigh_po_2p85_1_20/rin    -3.68188e-17
xbgr.xsky130_asc_res_xhigh_po_2p85_1_20.x1.xsky130_fd_pr__res_xhigh_po_2p85.ra    -4.41087e-17
xbgr.sky130_asc_res_xhigh_po_2p85_1_13/rout    -2.76134e-17
xbgr.xsky130_asc_res_xhigh_po_2p85_1_10.x0.xsky130_fd_pr__res_xhigh_po_2p85.ra      1.3884e-17
xbgr.xsky130_asc_res_xhigh_po_2p85_1_10.x1.xsky130_fd_pr__res_xhigh_po_2p85.ra     1.27058e-18
xbgr.sky130_asc_res_xhigh_po_2p85_1_3/rin     1.12867e-18
xbgr.xsky130_asc_res_xhigh_po_2p85_1_21.x0.xsky130_fd_pr__res_xhigh_po_2p85.ra     2.75949e-17
xbgr.sky130_asc_res_xhigh_po_2p85_1_21/rin     2.76551e-17
xbgr.xsky130_asc_res_xhigh_po_2p85_1_21.x1.xsky130_fd_pr__res_xhigh_po_2p85.ra     2.23142e-17
xbgr.sky130_asc_res_xhigh_po_2p85_1_18/rin     2.22541e-17
xbgr.xsky130_asc_res_xhigh_po_2p85_2_0.x0.t1      1.2913e-20
xbgr.xsky130_asc_res_xhigh_po_2p85_2_0.x0.t2     3.17681e-18
xbgr.sky130_asc_res_xhigh_po_2p85_2_0/rin     5.98151e-18
xbgr.xsky130_asc_res_xhigh_po_2p85_2_0.x1.t1     5.97354e-18
xbgr.xsky130_asc_res_xhigh_po_2p85_2_0.x1.t2     3.19769e-18
xbgr.xsky130_asc_res_xhigh_po_2p85_1_11.x0.xsky130_fd_pr__res_xhigh_po_2p85.ra    -1.05965e-17
xbgr.sky130_asc_res_xhigh_po_2p85_1_11/rin    -1.06203e-17
xbgr.xsky130_asc_res_xhigh_po_2p85_1_11.x1.xsky130_fd_pr__res_xhigh_po_2p85.ra    -8.48331e-18
xbgr.sky130_asc_res_xhigh_po_2p85_1_6/rin    -8.45898e-18
xbgr.xsky130_asc_res_xhigh_po_2p85_1_22.x0.xsky130_fd_pr__res_xhigh_po_2p85.ra    -3.31213e-17
xbgr.xsky130_asc_res_xhigh_po_2p85_1_22.x1.xsky130_fd_pr__res_xhigh_po_2p85.ra    -4.11687e-17
xbgr.sky130_asc_res_xhigh_po_2p85_1_13/rin    -4.11794e-17
xbgr.xsky130_asc_res_xhigh_po_2p85_2_1.x0.t1    -6.45844e-21
xbgr.xsky130_asc_res_xhigh_po_2p85_2_1.x0.t2    -8.52151e-19
xbgr.sky130_asc_res_xhigh_po_2p85_2_1/rin    -3.52929e-18
xbgr.xsky130_asc_res_xhigh_po_2p85_2_1.x1.t1    -3.52013e-18
xbgr.xsky130_asc_res_xhigh_po_2p85_2_1.x1.t2    -8.67766e-19
xbgr.xsky130_asc_res_xhigh_po_2p85_1_12.x0.xsky130_fd_pr__res_xhigh_po_2p85.ra    -2.02959e-17
xbgr.sky130_asc_res_xhigh_po_2p85_1_12/rin    -2.03543e-17
xbgr.xsky130_asc_res_xhigh_po_2p85_1_12.x1.xsky130_fd_pr__res_xhigh_po_2p85.ra    -1.57346e-17
xbgr.sky130_asc_res_xhigh_po_2p85_1_15/rin     -1.5689e-17
xbgr.xsky130_asc_res_xhigh_po_2p85_1_23.x0.xsky130_fd_pr__res_xhigh_po_2p85.ra     4.39372e-17
xbgr.sky130_asc_res_xhigh_po_2p85_1_23/rin     4.39985e-17
xbgr.xsky130_asc_res_xhigh_po_2p85_1_23.x1.xsky130_fd_pr__res_xhigh_po_2p85.ra      3.8568e-17
xbgr.sky130_asc_res_xhigh_po_2p85_1_29/rin      3.8507e-17
xbgr.xsky130_asc_res_xhigh_po_2p85_1_13.x0.xsky130_fd_pr__res_xhigh_po_2p85.ra    -4.10544e-17
xbgr.xsky130_asc_res_xhigh_po_2p85_1_13.x1.xsky130_fd_pr__res_xhigh_po_2p85.ra    -2.77906e-17
xbgr.xsky130_asc_res_xhigh_po_2p85_1_24.x0.xsky130_fd_pr__res_xhigh_po_2p85.ra     5.52061e-17
xbgr.sky130_asc_res_xhigh_po_2p85_1_24/rin     5.52701e-17
xbgr.xsky130_asc_res_xhigh_po_2p85_1_24.x1.xsky130_fd_pr__res_xhigh_po_2p85.ra     4.96357e-17
xbgr.sky130_asc_res_xhigh_po_2p85_1_27/rin     4.95728e-17
xbgr.xsky130_asc_res_xhigh_po_2p85_1_14.x0.xsky130_fd_pr__res_xhigh_po_2p85.ra    -1.27561e-17
xbgr.sky130_asc_res_xhigh_po_2p85_1_14/rin     -1.2781e-17
xbgr.xsky130_asc_res_xhigh_po_2p85_1_14.x1.xsky130_fd_pr__res_xhigh_po_2p85.ra    -1.06436e-17
xbgr.xsky130_asc_res_xhigh_po_2p85_1_25.x0.xsky130_fd_pr__res_xhigh_po_2p85.ra     3.30072e-17
xbgr.sky130_asc_res_xhigh_po_2p85_1_25/rin     3.30676e-17
xbgr.xsky130_asc_res_xhigh_po_2p85_1_25.x1.xsky130_fd_pr__res_xhigh_po_2p85.ra     2.77153e-17
xbgr.sky130_asc_nfet_01v8_lvt_1_1/gate     8.27639e-16
xbgr.xsky130_asc_res_xhigh_po_2p85_1_15.x0.xsky130_fd_pr__res_xhigh_po_2p85.ra    -1.56537e-17
xbgr.xsky130_asc_res_xhigh_po_2p85_1_15.x1.xsky130_fd_pr__res_xhigh_po_2p85.ra    -1.28105e-17
xbgr.xsky130_asc_res_xhigh_po_2p85_1_26.x0.xsky130_fd_pr__res_xhigh_po_2p85.ra     1.67765e-17
xbgr.sky130_asc_res_xhigh_po_2p85_1_26/rin     1.68366e-17
xbgr.xsky130_asc_res_xhigh_po_2p85_1_26.x1.xsky130_fd_pr__res_xhigh_po_2p85.ra     1.14828e-17
xbgr.sky130_asc_res_xhigh_po_2p85_1_28/rin     1.14223e-17
xbgr.xsky130_asc_res_xhigh_po_2p85_1_16.x0.xsky130_fd_pr__res_xhigh_po_2p85.ra    -2.74959e-17
xbgr.sky130_asc_res_xhigh_po_2p85_1_16/rin    -2.75825e-17
xbgr.xsky130_asc_res_xhigh_po_2p85_1_16.x1.xsky130_fd_pr__res_xhigh_po_2p85.ra    -2.04287e-17
xbgr.xsky130_asc_res_xhigh_po_2p85_1_27.x0.xsky130_fd_pr__res_xhigh_po_2p85.ra     4.95104e-17
xbgr.xsky130_asc_res_xhigh_po_2p85_1_27.x1.xsky130_fd_pr__res_xhigh_po_2p85.ra     4.40604e-17
xbgr.xsky130_asc_res_xhigh_po_2p85_1_17.x0.xsky130_fd_pr__res_xhigh_po_2p85.ra     6.13149e-17
xbgr.xsky130_asc_res_xhigh_po_2p85_1_17.x1.xsky130_fd_pr__res_xhigh_po_2p85.ra     5.53368e-17
xbgr.xsky130_asc_res_xhigh_po_2p85_1_28.x0.xsky130_fd_pr__res_xhigh_po_2p85.ra     1.13617e-17
xbgr.xsky130_asc_res_xhigh_po_2p85_1_28.x1.xsky130_fd_pr__res_xhigh_po_2p85.ra     6.04212e-18
porst                                        0
xbgr.xsky130_asc_res_xhigh_po_2p85_1_18.x0.xsky130_fd_pr__res_xhigh_po_2p85.ra     2.21935e-17
xbgr.xsky130_asc_res_xhigh_po_2p85_1_18.x1.xsky130_fd_pr__res_xhigh_po_2p85.ra     1.68966e-17
xbgr.sky130_asc_pfet_01v8_lvt_6_1/gate     2.10246e-15
xbgr.xsky130_asc_res_xhigh_po_2p85_1_29.x0.xsky130_fd_pr__res_xhigh_po_2p85.ra     3.84463e-17
xbgr.xsky130_asc_res_xhigh_po_2p85_1_29.x1.xsky130_fd_pr__res_xhigh_po_2p85.ra      3.3128e-17
xbgr.sky130_asc_nfet_01v8_lvt_1_1/drain     3.22539e-15
xbgr.xsky130_asc_res_xhigh_po_2p85_1_19.x0.xsky130_fd_pr__res_xhigh_po_2p85.ra    -3.67136e-17
xbgr.xsky130_asc_res_xhigh_po_2p85_1_19.x1.xsky130_fd_pr__res_xhigh_po_2p85.ra     -2.7683e-17
xbgr.xsky130_asc_cap_mim_m3_1_0.x0.a    -8.65702e-23
xbgr.xsky130_asc_cap_mim_m3_1_0.x0.b1     -7.4154e-23
xbgr.xsky130_asc_cap_mim_m3_1_0.x1.a    -8.65702e-23
xbgr.xsky130_asc_cap_mim_m3_1_0.x1.b1     -7.4154e-23
xbgr.xsky130_asc_cap_mim_m3_1_0.x2.a    -8.65702e-23
xbgr.xsky130_asc_cap_mim_m3_1_0.x2.b1     -7.4154e-23
xbgr.xsky130_asc_cap_mim_m3_1_0.x3.a    -8.65702e-23
xbgr.xsky130_asc_cap_mim_m3_1_0.x3.b1     -7.4154e-23
xbgr.xsky130_asc_cap_mim_m3_1_0.x4.a    -8.65702e-23
[...]
xbgr.xsky130_asc_cap_mim_m3_1_1.x14.b1    -1.06921e-22
xbgr.xsky130_asc_cap_mim_m3_1_1.x15.a    -1.24823e-22
xbgr.xsky130_asc_cap_mim_m3_1_1.x15.b1    -1.06921e-22
xbgr.xsky130_asc_cap_mim_m3_1_1.x16.a    -1.24823e-22
xbgr.xsky130_asc_cap_mim_m3_1_1.x16.b1    -1.06921e-22
xbgr.xsky130_asc_cap_mim_m3_1_1.x17.a    -1.24823e-22
xbgr.xsky130_asc_cap_mim_m3_1_1.x17.b1    -1.06921e-22
xbgr.xsky130_asc_cap_mim_m3_1_1.x18.a    -1.24823e-22
xbgr.xsky130_asc_cap_mim_m3_1_1.x18.b1    -1.06921e-22
xbgr.xsky130_asc_cap_mim_m3_1_1.x19.a    -1.24823e-22
xbgr.xsky130_asc_cap_mim_m3_1_1.x19.b1    -1.06921e-22
xbgr.xsky130_asc_cap_mim_m3_1_2.x0.a    -1.24823e-22
xbgr.xsky130_asc_cap_mim_m3_1_2.x0.b1    -1.06921e-22
xbgr.xsky130_asc_cap_mim_m3_1_2.x1.a    -1.24823e-22
xbgr.xsky130_asc_cap_mim_m3_1_2.x1.b1    -1.06921e-22
xbgr.xsky130_asc_cap_mim_m3_1_2.x2.a    -1.24823e-22
xbgr.xsky130_asc_cap_mim_m3_1_2.x2.b1    -1.06921e-22
xbgr.xsky130_asc_cap_mim_m3_1_2.x3.a    -1.24823e-22
xbgr.xsky130_asc_cap_mim_m3_1_2.x3.b1    -1.06921e-22
xbgr.xsky130_asc_cap_mim_m3_1_2.x4.a    -1.24823e-22
xbgr.xsky130_asc_cap_mim_m3_1_2.x4.b1    -1.06921e-22
xbgr.xsky130_asc_cap_mim_m3_1_2.x5.a    -1.24823e-22
xbgr.xsky130_asc_cap_mim_m3_1_2.x5.b1    -1.06921e-22
xbgr.xsky130_asc_cap_mim_m3_1_2.x6.a    -1.24823e-22
xbgr.xsky130_asc_cap_mim_m3_1_2.x6.b1    -1.06921e-22
xbgr.xsky130_asc_cap_mim_m3_1_2.x7.a    -1.24823e-22
xbgr.xsky130_asc_cap_mim_m3_1_2.x7.b1    -1.06921e-22
xbgr.xsky130_asc_cap_mim_m3_1_2.x8.a    -1.24823e-22
xbgr.xsky130_asc_cap_mim_m3_1_2.x8.b1    -1.06921e-22
xbgr.xsky130_asc_cap_mim_m3_1_2.x9.a    -1.24823e-22
xbgr.xsky130_asc_cap_mim_m3_1_2.x9.b1    -1.06921e-22
xbgr.xsky130_asc_cap_mim_m3_1_2.x10.a    -1.24823e-22
xbgr.xsky130_asc_cap_mim_m3_1_2.x10.b1    -1.06921e-22
xbgr.xsky130_asc_cap_mim_m3_1_2.x11.a    -1.24823e-22
xbgr.xsky130_asc_cap_mim_m3_1_2.x11.b1    -1.06921e-22
xbgr.xsky130_asc_cap_mim_m3_1_2.x12.a    -1.24823e-22
xbgr.xsky130_asc_cap_mim_m3_1_2.x12.b1    -1.06921e-22
xbgr.xsky130_asc_cap_mim_m3_1_2.x13.a    -1.24823e-22
xbgr.xsky130_asc_cap_mim_m3_1_2.x13.b1    -1.06921e-22
xbgr.xsky130_asc_cap_mim_m3_1_2.x14.a    -1.24823e-22
xbgr.xsky130_asc_cap_mim_m3_1_2.x14.b1    -1.06921e-22
xbgr.xsky130_asc_cap_mim_m3_1_2.x15.a    -1.24823e-22
xbgr.xsky130_asc_cap_mim_m3_1_2.x15.b1    -1.06921e-22
xbgr.xsky130_asc_cap_mim_m3_1_2.x16.a    -1.24823e-22
xbgr.xsky130_asc_cap_mim_m3_1_2.x16.b1    -1.06921e-22
xbgr.xsky130_asc_cap_mim_m3_1_2.x17.a    -1.24823e-22
xbgr.xsky130_asc_cap_mim_m3_1_2.x17.b1    -1.06921e-22
xbgr.xsky130_asc_cap_mim_m3_1_2.x18.a    -1.24823e-22
xbgr.xsky130_asc_cap_mim_m3_1_2.x18.b1    -1.06921e-22
xbgr.xsky130_asc_cap_mim_m3_1_2.x19.a    -1.24823e-22
xbgr.xsky130_asc_cap_mim_m3_1_2.x19.b1    -1.06921e-22
xbgr.xsky130_asc_cap_mim_m3_1_3.x0.a    -1.24823e-22
xbgr.xsky130_asc_cap_mim_m3_1_3.x0.b1    -1.06921e-22
xbgr.xsky130_asc_cap_mim_m3_1_3.x1.a    -1.24823e-22
xbgr.xsky130_asc_cap_mim_m3_1_3.x1.b1    -1.06921e-22
xbgr.xsky130_asc_cap_mim_m3_1_3.x2.a    -1.24823e-22
xbgr.xsky130_asc_cap_mim_m3_1_3.x2.b1    -1.06921e-22
xbgr.xsky130_asc_cap_mim_m3_1_3.x3.a    -1.24823e-22
xbgr.xsky130_asc_cap_mim_m3_1_3.x3.b1    -1.06921e-22
xbgr.xsky130_asc_cap_mim_m3_1_3.x4.a    -1.24823e-22
xbgr.xsky130_asc_cap_mim_m3_1_3.x4.b1    -1.06921e-22
xbgr.xsky130_asc_cap_mim_m3_1_3.x5.a    -1.24823e-22
xbgr.xsky130_asc_cap_mim_m3_1_3.x5.b1    -1.06921e-22
xbgr.xsky130_asc_cap_mim_m3_1_3.x6.a    -1.24823e-22
xbgr.xsky130_asc_cap_mim_m3_1_3.x6.b1    -1.06921e-22
xbgr.xsky130_asc_cap_mim_m3_1_3.x7.a    -1.24823e-22
xbgr.xsky130_asc_cap_mim_m3_1_3.x7.b1    -1.06921e-22
xbgr.xsky130_asc_cap_mim_m3_1_3.x8.a    -1.24823e-22
xbgr.xsky130_asc_cap_mim_m3_1_3.x8.b1    -1.06921e-22
xbgr.xsky130_asc_cap_mim_m3_1_3.x9.a    -1.24823e-22
xbgr.xsky130_asc_cap_mim_m3_1_3.x9.b1    -1.06921e-22
xbgr.xsky130_asc_cap_mim_m3_1_3.x10.a    -1.24823e-22
xbgr.xsky130_asc_cap_mim_m3_1_3.x10.b1    -1.06921e-22
xbgr.xsky130_asc_cap_mim_m3_1_3.x11.a    -1.24823e-22
xbgr.xsky130_asc_cap_mim_m3_1_3.x11.b1    -1.06921e-22
xbgr.xsky130_asc_cap_mim_m3_1_3.x12.a    -1.24823e-22
xbgr.xsky130_asc_cap_mim_m3_1_3.x12.b1    -1.06921e-22
xbgr.xsky130_asc_cap_mim_m3_1_3.x13.a    -1.24823e-22
xbgr.xsky130_asc_cap_mim_m3_1_3.x13.b1    -1.06921e-22
xbgr.xsky130_asc_cap_mim_m3_1_3.x14.a    -1.24823e-22
xbgr.xsky130_asc_cap_mim_m3_1_3.x14.b1    -1.06921e-22
xbgr.xsky130_asc_cap_mim_m3_1_3.x15.a    -1.24823e-22
xbgr.xsky130_asc_cap_mim_m3_1_3.x15.b1    -1.06921e-22
xbgr.xsky130_asc_cap_mim_m3_1_3.x16.a    -1.24823e-22
xbgr.xsky130_asc_cap_mim_m3_1_3.x16.b1    -1.06921e-22
xbgr.xsky130_asc_cap_mim_m3_1_3.x17.a    -1.24823e-22
xbgr.xsky130_asc_cap_mim_m3_1_3.x17.b1    -1.06921e-22
xbgr.xsky130_asc_cap_mim_m3_1_3.x18.a    -1.24823e-22
xbgr.xsky130_asc_cap_mim_m3_1_3.x18.b1    -1.06921e-22
xbgr.xsky130_asc_cap_mim_m3_1_3.x19.a    -1.24823e-22
xbgr.xsky130_asc_cap_mim_m3_1_3.x19.b1    -1.06921e-22
xbgr.xsky130_asc_cap_mim_m3_1_4.x0.a    -1.24823e-22
xbgr.xsky130_asc_cap_mim_m3_1_4.x0.b1    -1.06921e-22
xbgr.xsky130_asc_cap_mim_m3_1_4.x1.a    -1.24823e-22
xbgr.xsky130_asc_cap_mim_m3_1_4.x1.b1    -1.06921e-22
xbgr.xsky130_asc_cap_mim_m3_1_4.x2.a    -1.24823e-22
xbgr.xsky130_asc_cap_mim_m3_1_4.x2.b1    -1.06921e-22
xbgr.xsky130_asc_cap_mim_m3_1_4.x3.a    -1.24823e-22
xbgr.xsky130_asc_cap_mim_m3_1_4.x3.b1    -1.06921e-22
xbgr.xsky130_asc_cap_mim_m3_1_4.x4.a    -1.24823e-22
xbgr.xsky130_asc_cap_mim_m3_1_4.x4.b1    -1.06921e-22
xbgr.xsky130_asc_cap_mim_m3_1_4.x5.a    -1.24823e-22
xbgr.xsky130_asc_cap_mim_m3_1_4.x5.b1    -1.06921e-22
xbgr.xsky130_asc_cap_mim_m3_1_4.x6.a    -1.24823e-22
xbgr.xsky130_asc_cap_mim_m3_1_4.x6.b1    -1.06921e-22
xbgr.xsky130_asc_cap_mim_m3_1_4.x7.a    -1.24823e-22
xbgr.xsky130_asc_cap_mim_m3_1_4.x7.b1    -1.06921e-22
xbgr.xsky130_asc_cap_mim_m3_1_4.x8.a    -1.24823e-22
xbgr.xsky130_asc_cap_mim_m3_1_4.x8.b1    -1.06921e-22
xbgr.xsky130_asc_cap_mim_m3_1_4.x9.a    -1.24823e-22
xbgr.xsky130_asc_cap_mim_m3_1_4.x9.b1    -1.06921e-22
xbgr.xsky130_asc_cap_mim_m3_1_4.x10.a    -1.24823e-22
xbgr.xsky130_asc_cap_mim_m3_1_4.x10.b1    -1.06921e-22
xbgr.xsky130_asc_cap_mim_m3_1_4.x11.a    -1.24823e-22
xbgr.xsky130_asc_cap_mim_m3_1_4.x11.b1    -1.06921e-22
xbgr.xsky130_asc_cap_mim_m3_1_4.x12.a    -1.24823e-22
xbgr.xsky130_asc_cap_mim_m3_1_4.x12.b1    -1.06921e-22
xbgr.xsky130_asc_cap_mim_m3_1_4.x13.a    -1.24823e-22
xbgr.xsky130_asc_cap_mim_m3_1_4.x13.b1    -1.06921e-22
xbgr.xsky130_asc_cap_mim_m3_1_4.x14.a    -1.24823e-22
xbgr.xsky130_asc_cap_mim_m3_1_4.x14.b1    -1.06921e-22
xbgr.xsky130_asc_cap_mim_m3_1_4.x15.a    -1.24823e-22
xbgr.xsky130_asc_cap_mim_m3_1_4.x15.b1    -1.06921e-22
xbgr.xsky130_asc_cap_mim_m3_1_4.x16.a    -1.24823e-22
xbgr.xsky130_asc_cap_mim_m3_1_4.x16.b1    -1.06921e-22
xbgr.xsky130_asc_cap_mim_m3_1_4.x17.a    -1.24823e-22
xbgr.xsky130_asc_cap_mim_m3_1_4.x17.b1    -1.06921e-22
xbgr.xsky130_asc_cap_mim_m3_1_4.x18.a    -1.24823e-22
xbgr.xsky130_asc_cap_mim_m3_1_4.x18.b1    -1.06921e-22
xbgr.xsky130_asc_cap_mim_m3_1_4.x19.a    -1.24823e-22
xbgr.xsky130_asc_cap_mim_m3_1_4.x19.b1    -1.06921e-22
xbgr.xsky130_asc_cap_mim_m3_1_5.x0.a    -3.17066e-17
xbgr.xsky130_asc_cap_mim_m3_1_5.x0.b1    -3.17066e-17
xbgr.xsky130_asc_cap_mim_m3_1_5.x1.a    -3.17066e-17
xbgr.xsky130_asc_cap_mim_m3_1_5.x1.b1    -3.17066e-17
xbgr.xsky130_asc_cap_mim_m3_1_5.x2.a    -3.17066e-17
xbgr.xsky130_asc_cap_mim_m3_1_5.x2.b1    -3.17066e-17
xbgr.xsky130_asc_cap_mim_m3_1_5.x3.a    -3.17066e-17
xbgr.xsky130_asc_cap_mim_m3_1_5.x3.b1    -3.17066e-17
xbgr.xsky130_asc_cap_mim_m3_1_5.x4.a    -3.17066e-17
xbgr.xsky130_asc_cap_mim_m3_1_5.x4.b1    -3.17066e-17
xbgr.xsky130_asc_cap_mim_m3_1_5.x5.a    -3.17066e-17
xbgr.xsky130_asc_cap_mim_m3_1_5.x5.b1    -3.17066e-17
xbgr.xsky130_asc_cap_mim_m3_1_5.x6.a    -3.17066e-17
xbgr.xsky130_asc_cap_mim_m3_1_5.x6.b1    -3.17066e-17
xbgr.xsky130_asc_cap_mim_m3_1_5.x7.a    -3.17066e-17
xbgr.xsky130_asc_cap_mim_m3_1_5.x7.b1    -3.17066e-17
xbgr.xsky130_asc_cap_mim_m3_1_5.x8.a    -3.17066e-17
xbgr.xsky130_asc_cap_mim_m3_1_5.x8.b1    -3.17066e-17
xbgr.xsky130_asc_cap_mim_m3_1_5.x9.a    -3.17066e-17
xbgr.xsky130_asc_cap_mim_m3_1_5.x9.b1    -3.17066e-17
xbgr.xsky130_asc_cap_mim_m3_1_5.x10.a    -3.17066e-17
xbgr.xsky130_asc_cap_mim_m3_1_5.x10.b1    -3.17066e-17
xbgr.xsky130_asc_cap_mim_m3_1_5.x11.a    -3.17066e-17
xbgr.xsky130_asc_cap_mim_m3_1_5.x11.b1    -3.17066e-17
xbgr.xsky130_asc_cap_mim_m3_1_5.x12.a    -3.17066e-17
xbgr.xsky130_asc_cap_mim_m3_1_5.x12.b1    -3.17066e-17
xbgr.xsky130_asc_cap_mim_m3_1_5.x13.a    -3.17066e-17
xbgr.xsky130_asc_cap_mim_m3_1_5.x13.b1    -3.17066e-17
xbgr.xsky130_asc_cap_mim_m3_1_5.x14.a    -3.17066e-17
xbgr.xsky130_asc_cap_mim_m3_1_5.x14.b1    -3.17066e-17
xbgr.xsky130_asc_cap_mim_m3_1_5.x15.a    -3.17066e-17
xbgr.xsky130_asc_cap_mim_m3_1_5.x15.b1    -3.17066e-17
xbgr.xsky130_asc_cap_mim_m3_1_5.x16.a    -3.17066e-17
xbgr.xsky130_asc_cap_mim_m3_1_5.x16.b1    -3.17066e-17
xbgr.xsky130_asc_cap_mim_m3_1_5.x17.a    -3.17066e-17
xbgr.xsky130_asc_cap_mim_m3_1_5.x17.b1    -3.17066e-17
xbgr.xsky130_asc_cap_mim_m3_1_5.x18.a    -3.17066e-17
xbgr.xsky130_asc_cap_mim_m3_1_5.x18.b1    -3.17066e-17
xbgr.xsky130_asc_cap_mim_m3_1_5.x19.a    -3.17066e-17
xbgr.xsky130_asc_cap_mim_m3_1_5.x19.b1    -3.17066e-17
xbgr.xsky130_asc_res_xhigh_po_2p85_1_0.x0.xsky130_fd_pr__res_xhigh_po_2p85.ra    -1.43399e-17
xbgr.sky130_asc_res_xhigh_po_2p85_1_0/rin    -1.43543e-17
xbgr.xsky130_asc_res_xhigh_po_2p85_1_0.x1.xsky130_fd_pr__res_xhigh_po_2p85.ra    -1.27163e-17
xbgr.sky130_asc_res_xhigh_po_2p85_1_5/rin    -1.26937e-17
xbgr.xsky130_asc_cap_mim_m3_1_6.x0.a    -3.17066e-17
xbgr.xsky130_asc_cap_mim_m3_1_6.x0.b1    -3.17066e-17
xbgr.xsky130_asc_cap_mim_m3_1_6.x1.a    -3.17066e-17
xbgr.xsky130_asc_cap_mim_m3_1_6.x1.b1    -3.17066e-17
xbgr.xsky130_asc_cap_mim_m3_1_6.x2.a    -3.17066e-17
xbgr.xsky130_asc_cap_mim_m3_1_6.x2.b1    -3.17066e-17
xbgr.xsky130_asc_cap_mim_m3_1_6.x3.a    -3.17066e-17
xbgr.xsky130_asc_cap_mim_m3_1_6.x3.b1    -3.17066e-17
xbgr.xsky130_asc_cap_mim_m3_1_6.x4.a    -3.17066e-17
xbgr.xsky130_asc_cap_mim_m3_1_6.x4.b1    -3.17066e-17
xbgr.xsky130_asc_cap_mim_m3_1_6.x5.a    -3.17066e-17
xbgr.xsky130_asc_cap_mim_m3_1_6.x5.b1    -3.17066e-17
xbgr.xsky130_asc_cap_mim_m3_1_6.x6.a    -3.17066e-17
xbgr.xsky130_asc_cap_mim_m3_1_6.x6.b1    -3.17066e-17
xbgr.xsky130_asc_cap_mim_m3_1_6.x7.a    -3.17066e-17
xbgr.xsky130_asc_cap_mim_m3_1_6.x7.b1    -3.17066e-17
xbgr.xsky130_asc_cap_mim_m3_1_6.x8.a    -3.17066e-17
xbgr.xsky130_asc_cap_mim_m3_1_6.x8.b1    -3.17066e-17
xbgr.xsky130_asc_cap_mim_m3_1_6.x9.a    -3.17066e-17
xbgr.xsky130_asc_cap_mim_m3_1_6.x9.b1    -3.17066e-17
xbgr.xsky130_asc_cap_mim_m3_1_6.x10.a    -3.17066e-17
xbgr.xsky130_asc_cap_mim_m3_1_6.x10.b1    -3.17066e-17
xbgr.xsky130_asc_cap_mim_m3_1_6.x11.a    -3.17066e-17
xbgr.xsky130_asc_cap_mim_m3_1_6.x11.b1    -3.17066e-17
xbgr.xsky130_asc_cap_mim_m3_1_6.x12.a    -3.17066e-17
xbgr.xsky130_asc_cap_mim_m3_1_6.x12.b1    -3.17066e-17
xbgr.xsky130_asc_cap_mim_m3_1_6.x13.a    -3.17066e-17
xbgr.xsky130_asc_cap_mim_m3_1_6.x13.b1    -3.17066e-17
xbgr.xsky130_asc_cap_mim_m3_1_6.x14.a    -3.17066e-17
xbgr.xsky130_asc_cap_mim_m3_1_6.x14.b1    -3.17066e-17
xbgr.xsky130_asc_cap_mim_m3_1_6.x15.a    -3.17066e-17
xbgr.xsky130_asc_cap_mim_m3_1_6.x15.b1    -3.17066e-17
xbgr.xsky130_asc_cap_mim_m3_1_6.x16.a    -3.17066e-17
xbgr.xsky130_asc_cap_mim_m3_1_6.x16.b1    -3.17066e-17
xbgr.xsky130_asc_cap_mim_m3_1_6.x17.a    -3.17066e-17
xbgr.xsky130_asc_cap_mim_m3_1_6.x17.b1    -3.17066e-17
xbgr.xsky130_asc_cap_mim_m3_1_6.x18.a    -3.17066e-17
xbgr.xsky130_asc_cap_mim_m3_1_6.x18.b1    -3.17066e-17
xbgr.xsky130_asc_cap_mim_m3_1_6.x19.a    -3.17066e-17
xbgr.xsky130_asc_cap_mim_m3_1_6.x19.b1    -3.17066e-17
xbgr.xsky130_asc_res_xhigh_po_2p85_1_1.x0.xsky130_fd_pr__res_xhigh_po_2p85.ra      -1.398e-17
xbgr.sky130_asc_res_xhigh_po_2p85_1_1/rin     -1.3968e-17
xbgr.xsky130_asc_res_xhigh_po_2p85_1_1.x1.xsky130_fd_pr__res_xhigh_po_2p85.ra    -1.43578e-17
xbgr.xsky130_asc_cap_mim_m3_1_7.x0.a    -3.17066e-17
xbgr.xsky130_asc_cap_mim_m3_1_7.x0.b1    -3.17066e-17
xbgr.xsky130_asc_cap_mim_m3_1_7.x1.a    -3.17066e-17
xbgr.xsky130_asc_cap_mim_m3_1_7.x1.b1    -3.17066e-17
xbgr.xsky130_asc_cap_mim_m3_1_7.x2.a    -3.17066e-17
xbgr.xsky130_asc_cap_mim_m3_1_7.x2.b1    -3.17066e-17
xbgr.xsky130_asc_cap_mim_m3_1_7.x3.a    -3.17066e-17
xbgr.xsky130_asc_cap_mim_m3_1_7.x3.b1    -3.17066e-17
xbgr.xsky130_asc_cap_mim_m3_1_7.x4.a    -3.17066e-17
xbgr.xsky130_asc_cap_mim_m3_1_7.x4.b1    -3.17066e-17
xbgr.xsky130_asc_cap_mim_m3_1_7.x5.a    -3.17066e-17
xbgr.xsky130_asc_cap_mim_m3_1_7.x5.b1    -3.17066e-17
xbgr.xsky130_asc_cap_mim_m3_1_7.x6.a    -3.17066e-17
xbgr.xsky130_asc_cap_mim_m3_1_7.x6.b1    -3.17066e-17
xbgr.xsky130_asc_cap_mim_m3_1_7.x7.a    -3.17066e-17
xbgr.xsky130_asc_cap_mim_m3_1_7.x7.b1    -3.17066e-17
xbgr.xsky130_asc_cap_mim_m3_1_7.x8.a    -3.17066e-17
xbgr.xsky130_asc_cap_mim_m3_1_7.x8.b1    -3.17066e-17
xbgr.xsky130_asc_cap_mim_m3_1_7.x9.a    -3.17066e-17
xbgr.xsky130_asc_cap_mim_m3_1_7.x9.b1    -3.17066e-17
xbgr.xsky130_asc_cap_mim_m3_1_7.x10.a    -3.17066e-17
xbgr.xsky130_asc_cap_mim_m3_1_7.x10.b1    -3.17066e-17
xbgr.xsky130_asc_cap_mim_m3_1_7.x11.a    -3.17066e-17
xbgr.xsky130_asc_cap_mim_m3_1_7.x11.b1    -3.17066e-17
xbgr.xsky130_asc_cap_mim_m3_1_7.x12.a    -3.17066e-17
xbgr.xsky130_asc_cap_mim_m3_1_7.x12.b1    -3.17066e-17
xbgr.xsky130_asc_cap_mim_m3_1_7.x13.a    -3.17066e-17
xbgr.xsky130_asc_cap_mim_m3_1_7.x13.b1    -3.17066e-17
xbgr.xsky130_asc_cap_mim_m3_1_7.x14.a    -3.17066e-17
xbgr.xsky130_asc_cap_mim_m3_1_7.x14.b1    -3.17066e-17
xbgr.xsky130_asc_cap_mim_m3_1_7.x15.a    -3.17066e-17
xbgr.xsky130_asc_cap_mim_m3_1_7.x15.b1    -3.17066e-17
xbgr.xsky130_asc_cap_mim_m3_1_7.x16.a    -3.17066e-17
xbgr.xsky130_asc_cap_mim_m3_1_7.x16.b1    -3.17066e-17
xbgr.xsky130_asc_cap_mim_m3_1_7.x17.a    -3.17066e-17
xbgr.xsky130_asc_cap_mim_m3_1_7.x17.b1    -3.17066e-17
xbgr.xsky130_asc_cap_mim_m3_1_7.x18.a    -3.17066e-17
xbgr.xsky130_asc_cap_mim_m3_1_7.x18.b1    -3.17066e-17
xbgr.xsky130_asc_cap_mim_m3_1_7.x19.a    -3.17066e-17
xbgr.xsky130_asc_cap_mim_m3_1_7.x19.b1    -3.17066e-17
xbgr.xsky130_asc_res_xhigh_po_2p85_1_2.x0.xsky130_fd_pr__res_xhigh_po_2p85.ra    -4.07463e-18
xbgr.sky130_asc_res_xhigh_po_2p85_1_2/rin    -4.09023e-18
xbgr.xsky130_asc_res_xhigh_po_2p85_1_2.x1.xsky130_fd_pr__res_xhigh_po_2p85.ra    -2.75965e-18
xbgr.xsky130_asc_cap_mim_m3_1_8.x0.a    -3.17066e-17
xbgr.xsky130_asc_cap_mim_m3_1_8.x0.b1    -3.17066e-17
xbgr.xsky130_asc_cap_mim_m3_1_8.x1.a    -3.17066e-17
xbgr.xsky130_asc_cap_mim_m3_1_8.x1.b1    -3.17066e-17
xbgr.xsky130_asc_cap_mim_m3_1_8.x2.a    -3.17066e-17
xbgr.xsky130_asc_cap_mim_m3_1_8.x2.b1    -3.17066e-17
xbgr.xsky130_asc_cap_mim_m3_1_8.x3.a    -3.17066e-17
xbgr.xsky130_asc_cap_mim_m3_1_8.x3.b1    -3.17066e-17
xbgr.xsky130_asc_cap_mim_m3_1_8.x4.a    -3.17066e-17
xbgr.xsky130_asc_cap_mim_m3_1_8.x4.b1    -3.17066e-17
xbgr.xsky130_asc_cap_mim_m3_1_8.x5.a    -3.17066e-17
xbgr.xsky130_asc_cap_mim_m3_1_8.x5.b1    -3.17066e-17
xbgr.xsky130_asc_cap_mim_m3_1_8.x6.a    -3.17066e-17
xbgr.xsky130_asc_cap_mim_m3_1_8.x6.b1    -3.17066e-17
xbgr.xsky130_asc_cap_mim_m3_1_8.x7.a    -3.17066e-17
xbgr.xsky130_asc_cap_mim_m3_1_8.x7.b1    -3.17066e-17
xbgr.xsky130_asc_cap_mim_m3_1_8.x8.a    -3.17066e-17
xbgr.xsky130_asc_cap_mim_m3_1_8.x8.b1    -3.17066e-17
xbgr.xsky130_asc_cap_mim_m3_1_8.x9.a    -3.17066e-17
xbgr.xsky130_asc_cap_mim_m3_1_8.x9.b1    -3.17066e-17
xbgr.xsky130_asc_cap_mim_m3_1_8.x10.a    -3.17066e-17
xbgr.xsky130_asc_cap_mim_m3_1_8.x10.b1    -3.17066e-17
xbgr.xsky130_asc_cap_mim_m3_1_8.x11.a    -3.17066e-17
xbgr.xsky130_asc_cap_mim_m3_1_8.x11.b1    -3.17066e-17
xbgr.xsky130_asc_cap_mim_m3_1_8.x12.a    -3.17066e-17
xbgr.xsky130_asc_cap_mim_m3_1_8.x12.b1    -3.17066e-17
xbgr.xsky130_asc_cap_mim_m3_1_8.x13.a    -3.17066e-17
xbgr.xsky130_asc_cap_mim_m3_1_8.x13.b1    -3.17066e-17
xbgr.xsky130_asc_cap_mim_m3_1_8.x14.a    -3.17066e-17
xbgr.xsky130_asc_cap_mim_m3_1_8.x14.b1    -3.17066e-17
xbgr.xsky130_asc_cap_mim_m3_1_8.x15.a    -3.17066e-17
xbgr.xsky130_asc_cap_mim_m3_1_8.x15.b1    -3.17066e-17
xbgr.xsky130_asc_cap_mim_m3_1_8.x16.a    -3.17066e-17
xbgr.xsky130_asc_cap_mim_m3_1_8.x16.b1    -3.17066e-17
xbgr.xsky130_asc_cap_mim_m3_1_8.x17.a    -3.17066e-17
xbgr.xsky130_asc_cap_mim_m3_1_8.x17.b1    -3.17066e-17
xbgr.xsky130_asc_cap_mim_m3_1_8.x18.a    -3.17066e-17
xbgr.xsky130_asc_cap_mim_m3_1_8.x18.b1    -3.17066e-17
xbgr.xsky130_asc_cap_mim_m3_1_8.x19.a    -3.17066e-17
xbgr.xsky130_asc_cap_mim_m3_1_8.x19.b1    -3.17066e-17
xbgr.xsky130_asc_res_xhigh_po_2p85_1_3.x0.xsky130_fd_pr__res_xhigh_po_2p85.ra    -1.61565e-18
xbgr.xsky130_asc_res_xhigh_po_2p85_1_3.x1.xsky130_fd_pr__res_xhigh_po_2p85.ra    -9.88449e-18
xbgr.sky130_asc_res_xhigh_po_2p85_1_4/rin    -9.96672e-18
xbgr.xsky130_asc_cap_mim_m3_1_9.x0.a    -3.17066e-17
xbgr.xsky130_asc_cap_mim_m3_1_9.x0.b1    -3.17066e-17
xbgr.xsky130_asc_cap_mim_m3_1_9.x1.a    -3.17066e-17
xbgr.xsky130_asc_cap_mim_m3_1_9.x1.b1    -3.17066e-17
xbgr.xsky130_asc_cap_mim_m3_1_9.x2.a    -3.17066e-17
xbgr.xsky130_asc_cap_mim_m3_1_9.x2.b1    -3.17066e-17
xbgr.xsky130_asc_cap_mim_m3_1_9.x3.a    -3.17066e-17
xbgr.xsky130_asc_cap_mim_m3_1_9.x3.b1    -3.17066e-17
xbgr.xsky130_asc_cap_mim_m3_1_9.x4.a    -3.17066e-17
xbgr.xsky130_asc_cap_mim_m3_1_9.x4.b1    -3.17066e-17
xbgr.xsky130_asc_cap_mim_m3_1_9.x5.a    -3.17066e-17
xbgr.xsky130_asc_cap_mim_m3_1_9.x5.b1    -3.17066e-17
xbgr.xsky130_asc_cap_mim_m3_1_9.x6.a    -3.17066e-17
xbgr.xsky130_asc_cap_mim_m3_1_9.x6.b1    -3.17066e-17
xbgr.xsky130_asc_cap_mim_m3_1_9.x7.a    -3.17066e-17
xbgr.xsky130_asc_cap_mim_m3_1_9.x7.b1    -3.17066e-17
xbgr.xsky130_asc_cap_mim_m3_1_9.x8.a    -3.17066e-17
xbgr.xsky130_asc_cap_mim_m3_1_9.x8.b1    -3.17066e-17
xbgr.xsky130_asc_cap_mim_m3_1_9.x9.a    -3.17066e-17
xbgr.xsky130_asc_cap_mim_m3_1_9.x9.b1    -3.17066e-17
xbgr.xsky130_asc_cap_mim_m3_1_9.x10.a    -3.17066e-17
xbgr.xsky130_asc_cap_mim_m3_1_9.x10.b1    -3.17066e-17
xbgr.xsky130_asc_cap_mim_m3_1_9.x11.a    -3.17066e-17
xbgr.xsky130_asc_cap_mim_m3_1_9.x11.b1    -3.17066e-17
xbgr.xsky130_asc_cap_mim_m3_1_9.x12.a    -3.17066e-17
xbgr.xsky130_asc_cap_mim_m3_1_9.x12.b1    -3.17066e-17
xbgr.xsky130_asc_cap_mim_m3_1_9.x13.a    -3.17066e-17
xbgr.xsky130_asc_cap_mim_m3_1_9.x13.b1    -3.17066e-17
xbgr.xsky130_asc_cap_mim_m3_1_9.x14.a    -3.17066e-17
xbgr.xsky130_asc_cap_mim_m3_1_9.x14.b1    -3.17066e-17
xbgr.xsky130_asc_cap_mim_m3_1_9.x15.a    -3.17066e-17
xbgr.xsky130_asc_cap_mim_m3_1_9.x15.b1    -3.17066e-17
xbgr.xsky130_asc_cap_mim_m3_1_9.x16.a    -3.17066e-17
xbgr.xsky130_asc_cap_mim_m3_1_9.x16.b1    -3.17066e-17
xbgr.xsky130_asc_cap_mim_m3_1_9.x17.a    -3.17066e-17
xbgr.xsky130_asc_cap_mim_m3_1_9.x17.b1    -3.17066e-17
xbgr.xsky130_asc_cap_mim_m3_1_9.x18.a    -3.17066e-17
xbgr.xsky130_asc_cap_mim_m3_1_9.x18.b1    -3.17066e-17
xbgr.xsky130_asc_cap_mim_m3_1_9.x19.a    -3.17066e-17
xbgr.xsky130_asc_cap_mim_m3_1_9.x19.b1    -3.17066e-17
xbgr.xsky130_asc_res_xhigh_po_2p85_1_4.x0.xsky130_fd_pr__res_xhigh_po_2p85.ra    -1.00222e-17
xbgr.xsky130_asc_res_xhigh_po_2p85_1_4.x1.xsky130_fd_pr__res_xhigh_po_2p85.ra    -1.39343e-17
xbgr.xsky130_asc_res_xhigh_po_2p85_1_5.x0.xsky130_fd_pr__res_xhigh_po_2p85.ra    -1.26645e-17
xbgr.xsky130_asc_res_xhigh_po_2p85_1_5.x1.xsky130_fd_pr__res_xhigh_po_2p85.ra    -9.92638e-18
xbgr.xsky130_asc_res_xhigh_po_2p85_1_6.x0.xsky130_fd_pr__res_xhigh_po_2p85.ra     -5.6021e-18
xbgr.xsky130_asc_res_xhigh_po_2p85_1_6.x1.xsky130_fd_pr__res_xhigh_po_2p85.ra    -4.10722e-18
vgate                                        0
v2#branch                          -7.0332e-21
vq2#branch                                   0
vr1#branch                                   0
vm3#branch                                   0
vm2#branch                                   0
vm1#branch                                   0
vr2#branch                                   0
vr4#branch                                   0
v1#branch                         -5.02896e-20

