
Circuit: ** sch_path: /home/users/xingyuni/ee372/bandgapreferencecircuit/schematics/tsmc_bandgap_real.sch

Scale set
Doing analysis at TEMP = 0.000000 and TNOM = 27.000000

Warning: include: has no value, DC 0 assumed
Warning: include: has no value, DC 0 assumed
Warning: include: has no value, DC 0 assumed
Warning: include: has no value, DC 0 assumed
Warning: include: has no value, DC 0 assumed
Warning: include: has no value, DC 0 assumed
Warning: include: has no value, DC 0 assumed
Warning: include: has no value, DC 0 assumed
Warning: include: has no value, DC 0 assumed
Warning: include: has no value, DC 0 assumed
Warning: include: has no value, DC 0 assumed
Warning: include: has no value, DC 0 assumed
Warning: include: has no value, DC 0 assumed
Warning: include: has no value, DC 0 assumed
Warning: include: has no value, DC 0 assumed
Warning: include: has no value, DC 0 assumed
Warning: include: has no value, DC 0 assumed
Warning: include: has no value, DC 0 assumed
Warning: include: has no value, DC 0 assumed
Warning: include: has no value, DC 0 assumed
Warning: include: has no value, DC 0 assumed
Warning: include: has no value, DC 0 assumed
Warning: include: has no value, DC 0 assumed
Warning: include: has no value, DC 0 assumed
Warning: include: has no value, DC 0 assumed
Warning: include: has no value, DC 0 assumed
Warning: include: has no value, DC 0 assumed
Warning: include: has no value, DC 0 assumed
Warning: include: has no value, DC 0 assumed
Warning: include: has no value, DC 0 assumed
Warning: include: has no value, DC 0 assumed
Warning: include: has no value, DC 0 assumed
Warning: include: has no value, DC 0 assumed
Warning: include: has no value, DC 0 assumed
Warning: include: has no value, DC 0 assumed
Warning: include: has no value, DC 0 assumed
Warning: include: has no value, DC 0 assumed
Warning: include: has no value, DC 0 assumed
Warning: include: has no value, DC 0 assumed
Warning: include: has no value, DC 0 assumed
Warning: include: has no value, DC 0 assumed
Warning: include: has no value, DC 0 assumed
Warning: include: has no value, DC 0 assumed
Warning: include: has no value, DC 0 assumed
Warning: include: has no value, DC 0 assumed
Warning: include: has no value, DC 0 assumed
Warning: include: has no value, DC 0 assumed
Warning: include: has no value, DC 0 assumed
Warning: include: has no value, DC 0 assumed
Warning: include: has no value, DC 0 assumed
Warning: include: has no value, DC 0 assumed
Warning: include: has no value, DC 0 assumed
Warning: include: has no value, DC 0 assumed
Warning: include: has no value, DC 0 assumed
Warning: include: has no value, DC 0 assumed
Warning: include: has no value, DC 0 assumed
Warning: include: has no value, DC 0 assumed
Warning: include: has no value, DC 0 assumed
Warning: include: has no value, DC 0 assumed
Warning: include: has no value, DC 0 assumed
Warning: include: has no value, DC 0 assumed
Warning: include: has no value, DC 0 assumed
Warning: include: has no value, DC 0 assumed
Warning: include: has no value, DC 0 assumed
Warning: include: has no value, DC 0 assumed
Warning: include: has no value, DC 0 assumed
Warning: include: has no value, DC 0 assumed
Warning: include: has no value, DC 0 assumed
Warning: include: has no value, DC 0 assumed
Warning: include: has no value, DC 0 assumed
Warning: include: has no value, DC 0 assumed
Warning: include: has no value, DC 0 assumed
Warning: include: has no value, DC 0 assumed
Warning: include: has no value, DC 0 assumed
Warning: include: has no value, DC 0 assumed
Warning: include: has no value, DC 0 assumed
Warning: include: has no value, DC 0 assumed
Warning: include: has no value, DC 0 assumed
Warning: include: has no value, DC 0 assumed
Warning: include: has no value, DC 0 assumed
Warning: include: has no value, DC 0 assumed
Warning: include: has no value, DC 0 assumed
Warning: include: has no value, DC 0 assumed
Warning: include: has no value, DC 0 assumed
Warning: include: has no value, DC 0 assumed
Warning: include: has no value, DC 0 assumed
Warning: include: has no value, DC 0 assumed
Warning: include: has no value, DC 0 assumed
Warning: include: has no value, DC 0 assumed
Warning: include: has no value, DC 0 assumed
Warning: include: has no value, DC 0 assumed
Warning: include: has no value, DC 0 assumed
Warning: include: has no value, DC 0 assumed
Warning: include: has no value, DC 0 assumed
Warning: include: has no value, DC 0 assumed
Warning: include: has no value, DC 0 assumed
Warning: include: has no value, DC 0 assumed
Warning: include: has no value, DC 0 assumed
Warning: include: has no value, DC 0 assumed
Warning: include: has no value, DC 0 assumed
Warning: include: has no value, DC 0 assumed
Warning: include: has no value, DC 0 assumed
Warning: include: has no value, DC 0 assumed
Warning: include: has no value, DC 0 assumed
Warning: include: has no value, DC 0 assumed
Warning: include: has no value, DC 0 assumed
Warning: include: has no value, DC 0 assumed
Warning: include: has no value, DC 0 assumed
Warning: include: has no value, DC 0 assumed
Warning: include: has no value, DC 0 assumed
Warning: include: has no value, DC 0 assumed
Warning: include: has no value, DC 0 assumed
Warning: include: has no value, DC 0 assumed
Warning: include: has no value, DC 0 assumed
Warning: include: has no value, DC 0 assumed
Warning: include: has no value, DC 0 assumed
Warning: include: has no value, DC 0 assumed
Warning: include: has no value, DC 0 assumed
Warning: include: has no value, DC 0 assumed
Warning: include: has no value, DC 0 assumed
Warning: include: has no value, DC 0 assumed
Warning: include: has no value, DC 0 assumed
Warning: include: has no value, DC 0 assumed
Warning: include: has no value, DC 0 assumed
Warning: include: has no value, DC 0 assumed
Warning: include: has no value, DC 0 assumed
Warning: include: has no value, DC 0 assumed
Warning: include: has no value, DC 0 assumed
Warning: include: has no value, DC 0 assumed
Warning: include: has no value, DC 0 assumed
Warning: include: has no value, DC 0 assumed
Warning: include: has no value, DC 0 assumed
Warning: include: has no value, DC 0 assumed
Warning: include: has no value, DC 0 assumed
Warning: include: has no value, DC 0 assumed
Warning: include: has no value, DC 0 assumed
Warning: include: has no value, DC 0 assumed
Warning: include: has no value, DC 0 assumed
Warning: include: has no value, DC 0 assumed
Warning: include: has no value, DC 0 assumed
Warning: include: has no value, DC 0 assumed
Warning: include: has no value, DC 0 assumed
Warning: include: has no value, DC 0 assumed
Warning: include: has no value, DC 0 assumed
Warning: include: has no value, DC 0 assumed
Warning: include: has no value, DC 0 assumed
Warning: include: has no value, DC 0 assumed
Warning: include: has no value, DC 0 assumed
Warning: include: has no value, DC 0 assumed
Warning: include: has no value, DC 0 assumed
Warning: include: has no value, DC 0 assumed
Warning: include: has no value, DC 0 assumed
Warning: include: has no value, DC 0 assumed
Warning: include: has no value, DC 0 assumed
Warning: include: has no value, DC 0 assumed
Warning: include: has no value, DC 0 assumed
Warning: include: has no value, DC 0 assumed
Warning: include: has no value, DC 0 assumed
Warning: include: has no value, DC 0 assumed
Warning: include: has no value, DC 0 assumed
Warning: include: has no value, DC 0 assumed
Warning: include: has no value, DC 0 assumed
Warning: include: has no value, DC 0 assumed
Warning: include: has no value, DC 0 assumed
Warning: include: has no value, DC 0 assumed
Warning: include: has no value, DC 0 assumed
Warning: include: has no value, DC 0 assumed
Warning: include: has no value, DC 0 assumed
Warning: include: has no value, DC 0 assumed
Warning: include: has no value, DC 0 assumed
Warning: include: has no value, DC 0 assumed
Warning: include: has no value, DC 0 assumed
Warning: include: has no value, DC 0 assumed
Warning: include: has no value, DC 0 assumed
Warning: include: has no value, DC 0 assumed
Warning: include: has no value, DC 0 assumed
Warning: include: has no value, DC 0 assumed
Warning: include: has no value, DC 0 assumed
Warning: include: has no value, DC 0 assumed
Warning: include: has no value, DC 0 assumed
Warning: include: has no value, DC 0 assumed
Warning: include: has no value, DC 0 assumed
Warning: include: has no value, DC 0 assumed
Warning: include: has no value, DC 0 assumed
Warning: include: has no value, DC 0 assumed
Warning: include: has no value, DC 0 assumed
Warning: include: has no value, DC 0 assumed
Warning: include: has no value, DC 0 assumed
Warning: include: has no value, DC 0 assumed
Warning: include: has no value, DC 0 assumed
Warning: include: has no value, DC 0 assumed
Warning: include: has no value, DC 0 assumed
Warning: include: has no value, DC 0 assumed
Warning: include: has no value, DC 0 assumed
Warning: include: has no value, DC 0 assumed
Warning: include: has no value, DC 0 assumed
Warning: include: has no value, DC 0 assumed
Warning: include: has no value, DC 0 assumed
Warning: include: has no value, DC 0 assumed
Warning: include: has no value, DC 0 assumed
Warning: include: has no value, DC 0 assumed
Warning: include: has no value, DC 0 assumed
Warning: include: has no value, DC 0 assumed
Warning: include: has no value, DC 0 assumed
Warning: include: has no value, DC 0 assumed
Warning: include: has no value, DC 0 assumed
Warning: include: has no value, DC 0 assumed
Warning: include: has no value, DC 0 assumed
Warning: include: has no value, DC 0 assumed
Warning: include: has no value, DC 0 assumed
Warning: include: has no value, DC 0 assumed
Warning: include: has no value, DC 0 assumed
Warning: include: has no value, DC 0 assumed
Warning: include: has no value, DC 0 assumed
Warning: include: has no value, DC 0 assumed
Warning: include: has no value, DC 0 assumed
Warning: include: has no value, DC 0 assumed
Warning: include: has no value, DC 0 assumed
Warning: include: has no value, DC 0 assumed
Warning: include: has no value, DC 0 assumed
Warning: include: has no value, DC 0 assumed
Warning: include: has no value, DC 0 assumed
Warning: include: has no value, DC 0 assumed
Warning: include: has no value, DC 0 assumed
Warning: include: has no value, DC 0 assumed
Warning: include: has no value, DC 0 assumed
Warning: include: has no value, DC 0 assumed
Warning: include: has no value, DC 0 assumed
Warning: include: has no value, DC 0 assumed
Warning: include: has no value, DC 0 assumed
Warning: include: has no value, DC 0 assumed
Warning: include: has no value, DC 0 assumed
Warning: include: has no value, DC 0 assumed
Warning: include: has no value, DC 0 assumed
Warning: include: has no value, DC 0 assumed
Warning: include: has no value, DC 0 assumed
Warning: include: has no value, DC 0 assumed
Warning: include: has no value, DC 0 assumed
Warning: include: has no value, DC 0 assumed
Warning: include: has no value, DC 0 assumed
Warning: include: has no value, DC 0 assumed
Warning: include: has no value, DC 0 assumed
Warning: include: has no value, DC 0 assumed
Warning: include: has no value, DC 0 assumed
Warning: include: has no value, DC 0 assumed
Warning: include: has no value, DC 0 assumed
Warning: include: has no value, DC 0 assumed
Warning: include: has no value, DC 0 assumed
Warning: include: has no value, DC 0 assumed
Warning: include: has no value, DC 0 assumed
Warning: include: has no value, DC 0 assumed
Warning: include: has no value, DC 0 assumed
Warning: include: has no value, DC 0 assumed
Warning: include: has no value, DC 0 assumed
Warning: include: has no value, DC 0 assumed
Warning: include: has no value, DC 0 assumed
Warning: include: has no value, DC 0 assumed
Warning: include: has no value, DC 0 assumed
Warning: include: has no value, DC 0 assumed
Warning: include: has no value, DC 0 assumed
Warning: include: has no value, DC 0 assumed
Warning: include: has no value, DC 0 assumed
Warning: include: has no value, DC 0 assumed
Warning: include: has no value, DC 0 assumed
Warning: include: has no value, DC 0 assumed
Warning: include: has no value, DC 0 assumed
Warning: include: has no value, DC 0 assumed
Warning: include: has no value, DC 0 assumed
Warning: include: has no value, DC 0 assumed
Warning: include: has no value, DC 0 assumed
Warning: include: has no value, DC 0 assumed
Warning: include: has no value, DC 0 assumed
Warning: include: has no value, DC 0 assumed
Warning: include: has no value, DC 0 assumed
Warning: include: has no value, DC 0 assumed
Warning: include: has no value, DC 0 assumed
Warning: include: has no value, DC 0 assumed
Warning: include: has no value, DC 0 assumed
Warning: include: has no value, DC 0 assumed
Warning: include: has no value, DC 0 assumed
Warning: include: has no value, DC 0 assumed
Warning: include: has no value, DC 0 assumed
Warning: include: has no value, DC 0 assumed
Warning: include: has no value, DC 0 assumed
Warning: include: has no value, DC 0 assumed
Warning: include: has no value, DC 0 assumed
Warning: include: has no value, DC 0 assumed
Warning: include: has no value, DC 0 assumed
Warning: include: has no value, DC 0 assumed
Warning: include: has no value, DC 0 assumed
Warning: include: has no value, DC 0 assumed
Warning: include: has no value, DC 0 assumed
Warning: include: has no value, DC 0 assumed
Warning: include: has no value, DC 0 assumed
Warning: include: has no value, DC 0 assumed
Warning: include: has no value, DC 0 assumed
Warning: include: has no value, DC 0 assumed
Warning: include: has no value, DC 0 assumed
Warning: include: has no value, DC 0 assumed
Warning: include: has no value, DC 0 assumed
Warning: include: has no value, DC 0 assumed
Warning: include: has no value, DC 0 assumed
Warning: include: has no value, DC 0 assumed
Warning: include: has no value, DC 0 assumed
Warning: include: has no value, DC 0 assumed
Warning: include: has no value, DC 0 assumed
Warning: include: has no value, DC 0 assumed
Warning: include: has no value, DC 0 assumed
Warning: include: has no value, DC 0 assumed
Warning: include: has no value, DC 0 assumed
Warning: include: has no value, DC 0 assumed
Warning: include: has no value, DC 0 assumed
Warning: include: has no value, DC 0 assumed
Warning: include: has no value, DC 0 assumed
Warning: include: has no value, DC 0 assumed
Warning: include: has no value, DC 0 assumed
Warning: include: has no value, DC 0 assumed
Warning: include: has no value, DC 0 assumed
Warning: include: has no value, DC 0 assumed
Warning: include: has no value, DC 0 assumed
Warning: include: has no value, DC 0 assumed
Warning: include: has no value, DC 0 assumed
Warning: include: has no value, DC 0 assumed
Warning: include: has no value, DC 0 assumed
Warning: include: has no value, DC 0 assumed
Warning: include: has no value, DC 0 assumed
Warning: include: has no value, DC 0 assumed
Warning: include: has no value, DC 0 assumed
Warning: include: has no value, DC 0 assumed
Warning: include: has no value, DC 0 assumed
Warning: include: has no value, DC 0 assumed
Warning: include: has no value, DC 0 assumed
Warning: include: has no value, DC 0 assumed
Warning: include: has no value, DC 0 assumed
Warning: include: has no value, DC 0 assumed
Warning: include: has no value, DC 0 assumed
Warning: include: has no value, DC 0 assumed
Warning: include: has no value, DC 0 assumed
Warning: include: has no value, DC 0 assumed
Warning: include: has no value, DC 0 assumed
Warning: include: has no value, DC 0 assumed
Warning: include: has no value, DC 0 assumed
Warning: include: has no value, DC 0 assumed
Warning: include: has no value, DC 0 assumed
Warning: include: has no value, DC 0 assumed
Warning: include: has no value, DC 0 assumed
Warning: include: has no value, DC 0 assumed
Warning: include: has no value, DC 0 assumed
Warning: include: has no value, DC 0 assumed
Warning: include: has no value, DC 0 assumed
Warning: include: has no value, DC 0 assumed
Warning: include: has no value, DC 0 assumed
Warning: include: has no value, DC 0 assumed
Warning: include: has no value, DC 0 assumed
Warning: include: has no value, DC 0 assumed
Warning: include: has no value, DC 0 assumed
Warning: include: has no value, DC 0 assumed
Warning: include: has no value, DC 0 assumed
Warning: include: has no value, DC 0 assumed
Warning: include: has no value, DC 0 assumed
Warning: include: has no value, DC 0 assumed
Warning: include: has no value, DC 0 assumed
Warning: include: has no value, DC 0 assumed
Warning: include: has no value, DC 0 assumed
Warning: include: has no value, DC 0 assumed
Warning: include: has no value, DC 0 assumed
Warning: include: has no value, DC 0 assumed
Warning: include: has no value, DC 0 assumed
Warning: include: has no value, DC 0 assumed
Warning: include: has no value, DC 0 assumed
Warning: include: has no value, DC 0 assumed
Warning: include: has no value, DC 0 assumed
Warning: include: has no value, DC 0 assumed
Warning: include: has no value, DC 0 assumed
Warning: include: has no value, DC 0 assumed
Warning: include: has no value, DC 0 assumed
Warning: include: has no value, DC 0 assumed
Warning: include: has no value, DC 0 assumed
Warning: include: has no value, DC 0 assumed
Warning: include: has no value, DC 0 assumed
Warning: include: has no value, DC 0 assumed
Warning: include: has no value, DC 0 assumed
Warning: include: has no value, DC 0 assumed
Warning: include: has no value, DC 0 assumed
Warning: include: has no value, DC 0 assumed
Warning: include: has no value, DC 0 assumed
Warning: include: has no value, DC 0 assumed
Warning: include: has no value, DC 0 assumed
Warning: include: has no value, DC 0 assumed
Warning: include: has no value, DC 0 assumed
Warning: include: has no value, DC 0 assumed
Warning: include: has no value, DC 0 assumed
Warning: include: has no value, DC 0 assumed
Warning: include: has no value, DC 0 assumed
Warning: include: has no value, DC 0 assumed
Warning: include: has no value, DC 0 assumed
Warning: include: has no value, DC 0 assumed
Warning: include: has no value, DC 0 assumed
Warning: include: has no value, DC 0 assumed
Warning: include: has no value, DC 0 assumed
Warning: include: has no value, DC 0 assumed
Warning: include: has no value, DC 0 assumed
Warning: include: has no value, DC 0 assumed
Warning: include: has no value, DC 0 assumed
Warning: include: has no value, DC 0 assumed
Warning: include: has no value, DC 0 assumed
Warning: include: has no value, DC 0 assumed
Warning: include: has no value, DC 0 assumed
Warning: include: has no value, DC 0 assumed
Warning: include: has no value, DC 0 assumed
Warning: include: has no value, DC 0 assumed
Warning: include: has no value, DC 0 assumed
Warning: include: has no value, DC 0 assumed
Warning: include: has no value, DC 0 assumed
Warning: include: has no value, DC 0 assumed
Warning: include: has no value, DC 0 assumed
Warning: include: has no value, DC 0 assumed
Warning: include: has no value, DC 0 assumed
Warning: include: has no value, DC 0 assumed
Warning: include: has no value, DC 0 assumed
Warning: include: has no value, DC 0 assumed
Warning: include: has no value, DC 0 assumed
Warning: include: has no value, DC 0 assumed
Warning: include: has no value, DC 0 assumed
Warning: include: has no value, DC 0 assumed
Warning: include: has no value, DC 0 assumed
Warning: include: has no value, DC 0 assumed
Warning: include: has no value, DC 0 assumed
Warning: include: has no value, DC 0 assumed
Warning: include: has no value, DC 0 assumed
Warning: include: has no value, DC 0 assumed
Warning: include: has no value, DC 0 assumed
Warning: include: has no value, DC 0 assumed
Warning: include: has no value, DC 0 assumed
Warning: include: has no value, DC 0 assumed
Warning: include: has no value, DC 0 assumed
Warning: include: has no value, DC 0 assumed
Warning: include: has no value, DC 0 assumed
Warning: include: has no value, DC 0 assumed
Warning: include: has no value, DC 0 assumed
Warning: include: has no value, DC 0 assumed
Warning: include: has no value, DC 0 assumed
Warning: include: has no value, DC 0 assumed
Warning: include: has no value, DC 0 assumed
Warning: include: has no value, DC 0 assumed
Warning: include: has no value, DC 0 assumed
Warning: include: has no value, DC 0 assumed
Warning: include: has no value, DC 0 assumed
Warning: include: has no value, DC 0 assumed
Warning: include: has no value, DC 0 assumed
Warning: include: has no value, DC 0 assumed
Warning: include: has no value, DC 0 assumed
Warning: include: has no value, DC 0 assumed
Warning: include: has no value, DC 0 assumed
Warning: include: has no value, DC 0 assumed
Warning: include: has no value, DC 0 assumed
Warning: include: has no value, DC 0 assumed
Warning: include: has no value, DC 0 assumed
Warning: include: has no value, DC 0 assumed
Warning: include: has no value, DC 0 assumed
Warning: include: has no value, DC 0 assumed
Warning: include: has no value, DC 0 assumed
Warning: include: has no value, DC 0 assumed
Warning: include: has no value, DC 0 assumed
Warning: include: has no value, DC 0 assumed
Warning: include: has no value, DC 0 assumed
Warning: include: has no value, DC 0 assumed
Warning: include: has no value, DC 0 assumed
Warning: include: has no value, DC 0 assumed
Warning: include: has no value, DC 0 assumed
Warning: include: has no value, DC 0 assumed
Warning: include: has no value, DC 0 assumed
Warning: include: has no value, DC 0 assumed
Warning: include: has no value, DC 0 assumed
Warning: include: has no value, DC 0 assumed
Warning: include: has no value, DC 0 assumed
Warning: include: has no value, DC 0 assumed
Warning: include: has no value, DC 0 assumed
Warning: include: has no value, DC 0 assumed
Warning: include: has no value, DC 0 assumed
Warning: include: has no value, DC 0 assumed
Warning: include: has no value, DC 0 assumed
Warning: include: has no value, DC 0 assumed
Warning: include: has no value, DC 0 assumed
Warning: include: has no value, DC 0 assumed
Warning: include: has no value, DC 0 assumed
Warning: include: has no value, DC 0 assumed
Warning: include: has no value, DC 0 assumed
Warning: include: has no value, DC 0 assumed
Warning: include: has no value, DC 0 assumed
Warning: include: has no value, DC 0 assumed
Warning: include: has no value, DC 0 assumed
Warning: include: has no value, DC 0 assumed
Warning: include: has no value, DC 0 assumed
Warning: include: has no value, DC 0 assumed
Warning: include: has no value, DC 0 assumed
Warning: include: has no value, DC 0 assumed
Warning: include: has no value, DC 0 assumed
Warning: include: has no value, DC 0 assumed
Warning: include: has no value, DC 0 assumed
Warning: include: has no value, DC 0 assumed
Warning: include: has no value, DC 0 assumed
Warning: include: has no value, DC 0 assumed
Warning: include: has no value, DC 0 assumed
Warning: include: has no value, DC 0 assumed
Warning: include: has no value, DC 0 assumed
Warning: include: has no value, DC 0 assumed
Warning: include: has no value, DC 0 assumed
Warning: include: has no value, DC 0 assumed
Warning: include: has no value, DC 0 assumed
Warning: include: has no value, DC 0 assumed
Warning: include: has no value, DC 0 assumed
Warning: include: has no value, DC 0 assumed
Warning: include: has no value, DC 0 assumed
Warning: include: has no value, DC 0 assumed
Warning: include: has no value, DC 0 assumed
Warning: include: has no value, DC 0 assumed
Warning: include: has no value, DC 0 assumed
Warning: include: has no value, DC 0 assumed
Warning: include: has no value, DC 0 assumed
Warning: include: has no value, DC 0 assumed
Warning: include: has no value, DC 0 assumed
Warning: include: has no value, DC 0 assumed
Warning: include: has no value, DC 0 assumed
Warning: include: has no value, DC 0 assumed
Warning: include: has no value, DC 0 assumed
Warning: include: has no value, DC 0 assumed
Warning: include: has no value, DC 0 assumed
Warning: include: has no value, DC 0 assumed
Warning: include: has no value, DC 0 assumed
Warning: include: has no value, DC 0 assumed
Warning: include: has no value, DC 0 assumed
Warning: include: has no value, DC 0 assumed
Warning: include: has no value, DC 0 assumed
Warning: include: has no value, DC 0 assumed
Warning: include: has no value, DC 0 assumed
Warning: include: has no value, DC 0 assumed
Warning: include: has no value, DC 0 assumed
Warning: include: has no value, DC 0 assumed
Warning: include: has no value, DC 0 assumed
Warning: include: has no value, DC 0 assumed
Warning: include: has no value, DC 0 assumed
Warning: include: has no value, DC 0 assumed
Warning: include: has no value, DC 0 assumed
Warning: include: has no value, DC 0 assumed
Warning: include: has no value, DC 0 assumed
Warning: include: has no value, DC 0 assumed
Warning: include: has no value, DC 0 assumed
Warning: include: has no value, DC 0 assumed
Warning: include: has no value, DC 0 assumed
Warning: include: has no value, DC 0 assumed
Warning: include: has no value, DC 0 assumed
Warning: include: has no value, DC 0 assumed
Warning: include: has no value, DC 0 assumed
Warning: include: has no value, DC 0 assumed
Warning: include: has no value, DC 0 assumed
Warning: include: has no value, DC 0 assumed
Warning: include: has no value, DC 0 assumed
Warning: include: has no value, DC 0 assumed
Warning: include: has no value, DC 0 assumed
Warning: include: has no value, DC 0 assumed
Warning: include: has no value, DC 0 assumed
Warning: include: has no value, DC 0 assumed
Warning: include: has no value, DC 0 assumed
Warning: include: has no value, DC 0 assumed
Warning: include: has no value, DC 0 assumed
Warning: include: has no value, DC 0 assumed
Warning: include: has no value, DC 0 assumed
Warning: include: has no value, DC 0 assumed
Warning: include: has no value, DC 0 assumed
Warning: include: has no value, DC 0 assumed
Warning: include: has no value, DC 0 assumed
Warning: include: has no value, DC 0 assumed
Warning: include: has no value, DC 0 assumed
Warning: include: has no value, DC 0 assumed
Warning: include: has no value, DC 0 assumed
Warning: include: has no value, DC 0 assumed
Warning: include: has no value, DC 0 assumed
Warning: include: has no value, DC 0 assumed
Warning: include: has no value, DC 0 assumed
Warning: include: has no value, DC 0 assumed
Warning: include: has no value, DC 0 assumed
Warning: include: has no value, DC 0 assumed
Warning: include: has no value, DC 0 assumed
Warning: include: has no value, DC 0 assumed
Warning: include: has no value, DC 0 assumed
Warning: include: has no value, DC 0 assumed
Warning: include: has no value, DC 0 assumed
Warning: include: has no value, DC 0 assumed
Warning: include: has no value, DC 0 assumed
Warning: include: has no value, DC 0 assumed
Warning: include: has no value, DC 0 assumed
Warning: include: has no value, DC 0 assumed
Warning: include: has no value, DC 0 assumed
Warning: include: has no value, DC 0 assumed
Warning: include: has no value, DC 0 assumed
Warning: include: has no value, DC 0 assumed
Warning: include: has no value, DC 0 assumed
Warning: include: has no value, DC 0 assumed
Warning: include: has no value, DC 0 assumed
Warning: include: has no value, DC 0 assumed
Warning: include: has no value, DC 0 assumed
Warning: include: has no value, DC 0 assumed
Warning: include: has no value, DC 0 assumed
Warning: include: has no value, DC 0 assumed
Warning: include: has no value, DC 0 assumed
Warning: include: has no value, DC 0 assumed
Warning: include: has no value, DC 0 assumed
Warning: include: has no value, DC 0 assumed
Warning: include: has no value, DC 0 assumed
Warning: include: has no value, DC 0 assumed
Warning: include: has no value, DC 0 assumed
Warning: include: has no value, DC 0 assumed
Warning: include: has no value, DC 0 assumed
Warning: include: has no value, DC 0 assumed
Warning: include: has no value, DC 0 assumed
Warning: include: has no value, DC 0 assumed
Warning: include: has no value, DC 0 assumed
Warning: include: has no value, DC 0 assumed
Warning: include: has no value, DC 0 assumed
Warning: include: has no value, DC 0 assumed
Warning: include: has no value, DC 0 assumed
Warning: include: has no value, DC 0 assumed
Warning: include: has no value, DC 0 assumed
Warning: include: has no value, DC 0 assumed
Warning: include: has no value, DC 0 assumed
Warning: include: has no value, DC 0 assumed
Warning: include: has no value, DC 0 assumed
Warning: include: has no value, DC 0 assumed
Warning: include: has no value, DC 0 assumed
Warning: include: has no value, DC 0 assumed
Warning: include: has no value, DC 0 assumed
Warning: include: has no value, DC 0 assumed
Warning: include: has no value, DC 0 assumed
Warning: include: has no value, DC 0 assumed
Warning: include: has no value, DC 0 assumed
Warning: include: has no value, DC 0 assumed
Warning: include: has no value, DC 0 assumed
Warning: include: has no value, DC 0 assumed
Warning: include: has no value, DC 0 assumed
Warning: include: has no value, DC 0 assumed
Warning: include: has no value, DC 0 assumed
Warning: include: has no value, DC 0 assumed
Warning: include: has no value, DC 0 assumed
Warning: include: has no value, DC 0 assumed
Warning: include: has no value, DC 0 assumed
Warning: include: has no value, DC 0 assumed
Warning: include: has no value, DC 0 assumed
Warning: include: has no value, DC 0 assumed
Warning: include: has no value, DC 0 assumed
Warning: include: has no value, DC 0 assumed
Warning: include: has no value, DC 0 assumed
Warning: include: has no value, DC 0 assumed
Warning: include: has no value, DC 0 assumed
Warning: include: has no value, DC 0 assumed
Warning: include: has no value, DC 0 assumed
Warning: include: has no value, DC 0 assumed
Warning: include: has no value, DC 0 assumed
Warning: include: has no value, DC 0 assumed
Warning: include: has no value, DC 0 assumed
Warning: include: has no value, DC 0 assumed
Warning: include: has no value, DC 0 assumed
Warning: include: has no value, DC 0 assumed
Warning: include: has no value, DC 0 assumed
Warning: include: has no value, DC 0 assumed
Warning: include: has no value, DC 0 assumed
Warning: include: has no value, DC 0 assumed
Warning: include: has no value, DC 0 assumed
Warning: include: has no value, DC 0 assumed
Warning: include: has no value, DC 0 assumed
Warning: include: has no value, DC 0 assumed
Warning: include: has no value, DC 0 assumed
Warning: include: has no value, DC 0 assumed
Warning: include: has no value, DC 0 assumed
Warning: include: has no value, DC 0 assumed
Warning: include: has no value, DC 0 assumed
Warning: include: has no value, DC 0 assumed
Warning: include: has no value, DC 0 assumed
Warning: include: has no value, DC 0 assumed
Warning: include: has no value, DC 0 assumed
Warning: include: has no value, DC 0 assumed
Warning: include: has no value, DC 0 assumed
Warning: include: has no value, DC 0 assumed
Warning: include: has no value, DC 0 assumed
Warning: include: has no value, DC 0 assumed
Warning: include: has no value, DC 0 assumed
Warning: include: has no value, DC 0 assumed
Warning: include: has no value, DC 0 assumed
Warning: include: has no value, DC 0 assumed
Warning: include: has no value, DC 0 assumed
Warning: include: has no value, DC 0 assumed
Warning: include: has no value, DC 0 assumed
Warning: include: has no value, DC 0 assumed
Warning: include: has no value, DC 0 assumed
Warning: include: has no value, DC 0 assumed
Warning: include: has no value, DC 0 assumed
Warning: include: has no value, DC 0 assumed
Warning: include: has no value, DC 0 assumed
Warning: include: has no value, DC 0 assumed
Warning: include: has no value, DC 0 assumed
Warning: include: has no value, DC 0 assumed
Warning: include: has no value, DC 0 assumed
Warning: include: has no value, DC 0 assumed
Warning: include: has no value, DC 0 assumed
Warning: include: has no value, DC 0 assumed
Warning: include: has no value, DC 0 assumed
Warning: include: has no value, DC 0 assumed
Warning: include: has no value, DC 0 assumed
Warning: include: has no value, DC 0 assumed
Warning: include: has no value, DC 0 assumed
Warning: include: has no value, DC 0 assumed
Warning: include: has no value, DC 0 assumed
Warning: include: has no value, DC 0 assumed
Warning: include: has no value, DC 0 assumed
Warning: include: has no value, DC 0 assumed
Warning: include: has no value, DC 0 assumed
Warning: include: has no value, DC 0 assumed
Warning: include: has no value, DC 0 assumed
Warning: include: has no value, DC 0 assumed
Warning: include: has no value, DC 0 assumed
Warning: include: has no value, DC 0 assumed
Warning: include: has no value, DC 0 assumed
Warning: include: has no value, DC 0 assumed
Warning: include: has no value, DC 0 assumed
Warning: include: has no value, DC 0 assumed
Warning: include: has no value, DC 0 assumed
Warning: include: has no value, DC 0 assumed
Warning: include: has no value, DC 0 assumed
Warning: include: has no value, DC 0 assumed
Warning: include: has no value, DC 0 assumed
Warning: include: has no value, DC 0 assumed
Warning: include: has no value, DC 0 assumed
Warning: include: has no value, DC 0 assumed
Warning: include: has no value, DC 0 assumed
Warning: include: has no value, DC 0 assumed
Warning: include: has no value, DC 0 assumed
Warning: include: has no value, DC 0 assumed
Warning: include: has no value, DC 0 assumed
Warning: include: has no value, DC 0 assumed
Warning: include: has no value, DC 0 assumed
Warning: include: has no value, DC 0 assumed
Warning: include: has no value, DC 0 assumed
Warning: include: has no value, DC 0 assumed
Warning: include: has no value, DC 0 assumed
Warning: include: has no value, DC 0 assumed
Warning: include: has no value, DC 0 assumed
Warning: include: has no value, DC 0 assumed
Warning: include: has no value, DC 0 assumed
Warning: include: has no value, DC 0 assumed
Warning: include: has no value, DC 0 assumed
Warning: include: has no value, DC 0 assumed
Warning: include: has no value, DC 0 assumed
Warning: include: has no value, DC 0 assumed
Warning: include: has no value, DC 0 assumed
Warning: include: has no value, DC 0 assumed
Warning: include: has no value, DC 0 assumed
Warning: include: has no value, DC 0 assumed
Warning: include: has no value, DC 0 assumed
Warning: include: has no value, DC 0 assumed
Warning: include: has no value, DC 0 assumed
Warning: include: has no value, DC 0 assumed
Warning: include: has no value, DC 0 assumed
Warning: include: has no value, DC 0 assumed
Warning: include: has no value, DC 0 assumed
Warning: include: has no value, DC 0 assumed
Warning: include: has no value, DC 0 assumed
Warning: include: has no value, DC 0 assumed
Warning: include: has no value, DC 0 assumed
Warning: include: has no value, DC 0 assumed
Warning: include: has no value, DC 0 assumed
Warning: include: has no value, DC 0 assumed
Warning: include: has no value, DC 0 assumed
Warning: include: has no value, DC 0 assumed
Warning: include: has no value, DC 0 assumed
Warning: include: has no value, DC 0 assumed
Warning: include: has no value, DC 0 assumed
Warning: include: has no value, DC 0 assumed
Warning: include: has no value, DC 0 assumed
Warning: include: has no value, DC 0 assumed
Warning: include: has no value, DC 0 assumed
Warning: include: has no value, DC 0 assumed
Warning: include: has no value, DC 0 assumed
Warning: include: has no value, DC 0 assumed
Warning: include: has no value, DC 0 assumed
Warning: include: has no value, DC 0 assumed
Warning: include: has no value, DC 0 assumed
Warning: include: has no value, DC 0 assumed
Warning: include: has no value, DC 0 assumed
Warning: include: has no value, DC 0 assumed
Warning: include: has no value, DC 0 assumed
Warning: include: has no value, DC 0 assumed
Warning: include: has no value, DC 0 assumed
Warning: include: has no value, DC 0 assumed
Warning: include: has no value, DC 0 assumed
Warning: include: has no value, DC 0 assumed
Warning: include: has no value, DC 0 assumed
Warning: include: has no value, DC 0 assumed
Warning: include: has no value, DC 0 assumed
Warning: include: has no value, DC 0 assumed
Warning: include: has no value, DC 0 assumed
Warning: include: has no value, DC 0 assumed
Warning: include: has no value, DC 0 assumed
Warning: include: has no value, DC 0 assumed
Warning: include: has no value, DC 0 assumed
Warning: include: has no value, DC 0 assumed
Warning: include: has no value, DC 0 assumed
Warning: include: has no value, DC 0 assumed
Warning: include: has no value, DC 0 assumed
Warning: include: has no value, DC 0 assumed
Warning: include: has no value, DC 0 assumed
Warning: include: has no value, DC 0 assumed
Warning: include: has no value, DC 0 assumed
Warning: include: has no value, DC 0 assumed
Warning: include: has no value, DC 0 assumed
Warning: include: has no value, DC 0 assumed
Warning: include: has no value, DC 0 assumed
Warning: include: has no value, DC 0 assumed
Warning: include: has no value, DC 0 assumed
Warning: include: has no value, DC 0 assumed
Warning: include: has no value, DC 0 assumed
Warning: include: has no value, DC 0 assumed
Warning: include: has no value, DC 0 assumed
Warning: include: has no value, DC 0 assumed
Warning: include: has no value, DC 0 assumed
Warning: include: has no value, DC 0 assumed
Warning: include: has no value, DC 0 assumed
Warning: include: has no value, DC 0 assumed
Warning: include: has no value, DC 0 assumed
Warning: include: has no value, DC 0 assumed
Warning: include: has no value, DC 0 assumed
Warning: include: has no value, DC 0 assumed
Warning: include: has no value, DC 0 assumed
Warning: include: has no value, DC 0 assumed
Warning: include: has no value, DC 0 assumed
Warning: include: has no value, DC 0 assumed
Warning: include: has no value, DC 0 assumed
Warning: include: has no value, DC 0 assumed
Warning: include: has no value, DC 0 assumed
Warning: include: has no value, DC 0 assumed
Warning: include: has no value, DC 0 assumed
Warning: include: has no value, DC 0 assumed
Warning: include: has no value, DC 0 assumed
Warning: include: has no value, DC 0 assumed
Warning: include: has no value, DC 0 assumed
Warning: include: has no value, DC 0 assumed
Warning: include: has no value, DC 0 assumed
Warning: include: has no value, DC 0 assumed
Warning: include: has no value, DC 0 assumed
Warning: include: has no value, DC 0 assumed
Warning: include: has no value, DC 0 assumed
Warning: include: has no value, DC 0 assumed
Warning: include: has no value, DC 0 assumed
Warning: include: has no value, DC 0 assumed
Warning: include: has no value, DC 0 assumed
Warning: include: has no value, DC 0 assumed
Warning: include: has no value, DC 0 assumed
Warning: include: has no value, DC 0 assumed
Warning: include: has no value, DC 0 assumed
Warning: include: has no value, DC 0 assumed
Warning: include: has no value, DC 0 assumed
Warning: include: has no value, DC 0 assumed
Warning: include: has no value, DC 0 assumed
Warning: include: has no value, DC 0 assumed
Warning: include: has no value, DC 0 assumed
Warning: include: has no value, DC 0 assumed
Warning: include: has no value, DC 0 assumed
Warning: include: has no value, DC 0 assumed
Warning: include: has no value, DC 0 assumed
Warning: include: has no value, DC 0 assumed
Warning: include: has no value, DC 0 assumed
Warning: include: has no value, DC 0 assumed
Warning: include: has no value, DC 0 assumed
Warning: include: has no value, DC 0 assumed
Warning: include: has no value, DC 0 assumed
Warning: include: has no value, DC 0 assumed
Warning: include: has no value, DC 0 assumed
Warning: include: has no value, DC 0 assumed
Warning: include: has no value, DC 0 assumed
Warning: include: has no value, DC 0 assumed
Warning: include: has no value, DC 0 assumed
Warning: include: has no value, DC 0 assumed
Warning: include: has no value, DC 0 assumed
Warning: include: has no value, DC 0 assumed
Warning: include: has no value, DC 0 assumed
Warning: include: has no value, DC 0 assumed
Warning: include: has no value, DC 0 assumed
Warning: include: has no value, DC 0 assumed
Warning: include: has no value, DC 0 assumed
Warning: include: has no value, DC 0 assumed
Warning: include: has no value, DC 0 assumed
Warning: include: has no value, DC 0 assumed
Warning: include: has no value, DC 0 assumed
Warning: include: has no value, DC 0 assumed
Warning: include: has no value, DC 0 assumed
Warning: include: has no value, DC 0 assumed
Warning: include: has no value, DC 0 assumed
Warning: include: has no value, DC 0 assumed
Warning: include: has no value, DC 0 assumed
Warning: include: has no value, DC 0 assumed
Warning: include: has no value, DC 0 assumed
Warning: include: has no value, DC 0 assumed
Warning: include: has no value, DC 0 assumed
Warning: include: has no value, DC 0 assumed
Warning: include: has no value, DC 0 assumed
Warning: include: has no value, DC 0 assumed
Warning: include: has no value, DC 0 assumed
Warning: include: has no value, DC 0 assumed
Warning: include: has no value, DC 0 assumed
Warning: include: has no value, DC 0 assumed
Warning: include: has no value, DC 0 assumed
Warning: include: has no value, DC 0 assumed
Warning: include: has no value, DC 0 assumed
Warning: include: has no value, DC 0 assumed
Warning: include: has no value, DC 0 assumed
Warning: include: has no value, DC 0 assumed
Warning: include: has no value, DC 0 assumed
Warning: include: has no value, DC 0 assumed
Warning: include: has no value, DC 0 assumed
Warning: include: has no value, DC 0 assumed
Warning: include: has no value, DC 0 assumed
Warning: include: has no value, DC 0 assumed
Warning: include: has no value, DC 0 assumed
Warning: include: has no value, DC 0 assumed
Warning: include: has no value, DC 0 assumed
Warning: include: has no value, DC 0 assumed
Warning: include: has no value, DC 0 assumed
Warning: include: has no value, DC 0 assumed
Warning: include: has no value, DC 0 assumed
Warning: include: has no value, DC 0 assumed
Warning: include: has no value, DC 0 assumed
Warning: include: has no value, DC 0 assumed
Warning: include: has no value, DC 0 assumed
Warning: include: has no value, DC 0 assumed
Warning: include: has no value, DC 0 assumed
Warning: include: has no value, DC 0 assumed
Warning: include: has no value, DC 0 assumed
Warning: include: has no value, DC 0 assumed
Warning: include: has no value, DC 0 assumed
Warning: include: has no value, DC 0 assumed
Warning: include: has no value, DC 0 assumed
Warning: include: has no value, DC 0 assumed
Warning: include: has no value, DC 0 assumed
Warning: include: has no value, DC 0 assumed
Warning: include: has no value, DC 0 assumed
Warning: include: has no value, DC 0 assumed
Warning: include: has no value, DC 0 assumed
Warning: include: has no value, DC 0 assumed
Warning: include: has no value, DC 0 assumed
Warning: include: has no value, DC 0 assumed
Warning: include: has no value, DC 0 assumed
Warning: include: has no value, DC 0 assumed
Warning: include: has no value, DC 0 assumed
Warning: include: has no value, DC 0 assumed
Warning: include: has no value, DC 0 assumed
Warning: include: has no value, DC 0 assumed
Warning: include: has no value, DC 0 assumed
Warning: include: has no value, DC 0 assumed
Warning: include: has no value, DC 0 assumed
Warning: include: has no value, DC 0 assumed
Warning: include: has no value, DC 0 assumed
Warning: include: has no value, DC 0 assumed
Warning: include: has no value, DC 0 assumed
Warning: include: has no value, DC 0 assumed
Warning: include: has no value, DC 0 assumed
Warning: include: has no value, DC 0 assumed
Warning: include: has no value, DC 0 assumed
Warning: include: has no value, DC 0 assumed
Warning: include: has no value, DC 0 assumed
Warning: include: has no value, DC 0 assumed
Warning: include: has no value, DC 0 assumed
Warning: include: has no value, DC 0 assumed
Warning: include: has no value, DC 0 assumed
Warning: include: has no value, DC 0 assumed
Warning: include: has no value, DC 0 assumed
Warning: include: has no value, DC 0 assumed
Warning: include: has no value, DC 0 assumed
Warning: include: has no value, DC 0 assumed
Warning: include: has no value, DC 0 assumed
Warning: include: has no value, DC 0 assumed
Warning: include: has no value, DC 0 assumed
Warning: include: has no value, DC 0 assumed
Warning: include: has no value, DC 0 assumed
Warning: include: has no value, DC 0 assumed
Warning: include: has no value, DC 0 assumed
Warning: include: has no value, DC 0 assumed
Warning: include: has no value, DC 0 assumed
Warning: include: has no value, DC 0 assumed
Warning: include: has no value, DC 0 assumed
Warning: include: has no value, DC 0 assumed
Warning: include: has no value, DC 0 assumed
Warning: include: has no value, DC 0 assumed
Warning: include: has no value, DC 0 assumed
Warning: include: has no value, DC 0 assumed
Warning: include: has no value, DC 0 assumed
Warning: include: has no value, DC 0 assumed
Warning: include: has no value, DC 0 assumed
Warning: include: has no value, DC 0 assumed
Warning: include: has no value, DC 0 assumed
Warning: include: has no value, DC 0 assumed
Warning: include: has no value, DC 0 assumed
Warning: include: has no value, DC 0 assumed
Warning: include: has no value, DC 0 assumed
Warning: include: has no value, DC 0 assumed
Warning: include: has no value, DC 0 assumed
Warning: include: has no value, DC 0 assumed
Warning: include: has no value, DC 0 assumed
Warning: include: has no value, DC 0 assumed
Warning: include: has no value, DC 0 assumed
Warning: include: has no value, DC 0 assumed
Warning: include: has no value, DC 0 assumed
Warning: include: has no value, DC 0 assumed
Warning: include: has no value, DC 0 assumed
Warning: include: has no value, DC 0 assumed
Warning: include: has no value, DC 0 assumed
Warning: include: has no value, DC 0 assumed
Warning: include: has no value, DC 0 assumed
Warning: include: has no value, DC 0 assumed
Warning: include: has no value, DC 0 assumed
Warning: include: has no value, DC 0 assumed
Warning: include: has no value, DC 0 assumed
Warning: include: has no value, DC 0 assumed
Warning: include: has no value, DC 0 assumed
Warning: include: has no value, DC 0 assumed
Warning: include: has no value, DC 0 assumed
Warning: include: has no value, DC 0 assumed
Warning: include: has no value, DC 0 assumed
Warning: include: has no value, DC 0 assumed
Warning: include: has no value, DC 0 assumed
Warning: include: has no value, DC 0 assumed
Warning: include: has no value, DC 0 assumed
Warning: include: has no value, DC 0 assumed
Warning: include: has no value, DC 0 assumed
Warning: include: has no value, DC 0 assumed
Warning: include: has no value, DC 0 assumed
Warning: include: has no value, DC 0 assumed
Warning: include: has no value, DC 0 assumed
Warning: include: has no value, DC 0 assumed
Warning: include: has no value, DC 0 assumed
Warning: include: has no value, DC 0 assumed
Warning: include: has no value, DC 0 assumed
Warning: include: has no value, DC 0 assumed
Warning: include: has no value, DC 0 assumed
Warning: include: has no value, DC 0 assumed
Warning: include: has no value, DC 0 assumed
Warning: include: has no value, DC 0 assumed
Warning: include: has no value, DC 0 assumed
Warning: include: has no value, DC 0 assumed
Warning: include: has no value, DC 0 assumed
Warning: include: has no value, DC 0 assumed
Warning: include: has no value, DC 0 assumed
Warning: include: has no value, DC 0 assumed
Warning: include: has no value, DC 0 assumed
Warning: include: has no value, DC 0 assumed
Warning: include: has no value, DC 0 assumed
Warning: include: has no value, DC 0 assumed
Warning: include: has no value, DC 0 assumed
Warning: include: has no value, DC 0 assumed
Warning: include: has no value, DC 0 assumed
Warning: include: has no value, DC 0 assumed
Warning: include: has no value, DC 0 assumed
Warning: include: has no value, DC 0 assumed
Warning: include: has no value, DC 0 assumed
Warning: include: has no value, DC 0 assumed
Warning: include: has no value, DC 0 assumed
Warning: include: has no value, DC 0 assumed
Warning: include: has no value, DC 0 assumed
Warning: include: has no value, DC 0 assumed
Warning: include: has no value, DC 0 assumed
Warning: include: has no value, DC 0 assumed
Warning: include: has no value, DC 0 assumed
Warning: include: has no value, DC 0 assumed
Warning: include: has no value, DC 0 assumed
Warning: include: has no value, DC 0 assumed
Warning: include: has no value, DC 0 assumed
Warning: include: has no value, DC 0 assumed
Warning: include: has no value, DC 0 assumed
Warning: include: has no value, DC 0 assumed
Warning: include: has no value, DC 0 assumed
Warning: include: has no value, DC 0 assumed
Warning: include: has no value, DC 0 assumed
Warning: include: has no value, DC 0 assumed
Warning: include: has no value, DC 0 assumed
Warning: include: has no value, DC 0 assumed
Warning: include: has no value, DC 0 assumed
Warning: include: has no value, DC 0 assumed
Warning: include: has no value, DC 0 assumed
Warning: include: has no value, DC 0 assumed
Warning: include: has no value, DC 0 assumed
Warning: include: has no value, DC 0 assumed
Warning: include: has no value, DC 0 assumed
Warning: include: has no value, DC 0 assumed
Warning: include: has no value, DC 0 assumed
Warning: include: has no value, DC 0 assumed
Warning: include: has no value, DC 0 assumed
Warning: include: has no value, DC 0 assumed
Warning: include: has no value, DC 0 assumed
Warning: include: has no value, DC 0 assumed
Warning: include: has no value, DC 0 assumed
Warning: include: has no value, DC 0 assumed
Warning: include: has no value, DC 0 assumed
Warning: include: has no value, DC 0 assumed
Warning: include: has no value, DC 0 assumed
Warning: include: has no value, DC 0 assumed
Warning: include: has no value, DC 0 assumed
Warning: include: has no value, DC 0 assumed
Warning: include: has no value, DC 0 assumed
Warning: include: has no value, DC 0 assumed
Warning: include: has no value, DC 0 assumed
Warning: include: has no value, DC 0 assumed
Warning: include: has no value, DC 0 assumed
Warning: include: has no value, DC 0 assumed
Warning: include: has no value, DC 0 assumed
Warning: include: has no value, DC 0 assumed
Warning: include: has no value, DC 0 assumed
Warning: include: has no value, DC 0 assumed
Warning: include: has no value, DC 0 assumed
Warning: include: has no value, DC 0 assumed
Warning: include: has no value, DC 0 assumed
Warning: include: has no value, DC 0 assumed
Warning: include: has no value, DC 0 assumed
Warning: include: has no value, DC 0 assumed
Warning: include: has no value, DC 0 assumed
Warning: include: has no value, DC 0 assumed
Warning: include: has no value, DC 0 assumed
Warning: include: has no value, DC 0 assumed
Warning: include: has no value, DC 0 assumed
Warning: include: has no value, DC 0 assumed
Warning: include: has no value, DC 0 assumed
Warning: include: has no value, DC 0 assumed
Warning: include: has no value, DC 0 assumed
Warning: include: has no value, DC 0 assumed
Warning: include: has no value, DC 0 assumed
Warning: include: has no value, DC 0 assumed
Warning: include: has no value, DC 0 assumed
Warning: include: has no value, DC 0 assumed
Warning: include: has no value, DC 0 assumed
Warning: include: has no value, DC 0 assumed
Warning: include: has no value, DC 0 assumed
Warning: include: has no value, DC 0 assumed
Warning: include: has no value, DC 0 assumed
Warning: include: has no value, DC 0 assumed
Warning: include: has no value, DC 0 assumed
Warning: include: has no value, DC 0 assumed
Warning: include: has no value, DC 0 assumed
Warning: include: has no value, DC 0 assumed
Warning: include: has no value, DC 0 assumed
Warning: include: has no value, DC 0 assumed
Warning: include: has no value, DC 0 assumed
Warning: include: has no value, DC 0 assumed
Warning: include: has no value, DC 0 assumed
Warning: include: has no value, DC 0 assumed
Warning: include: has no value, DC 0 assumed
Warning: include: has no value, DC 0 assumed
Warning: include: has no value, DC 0 assumed
Warning: include: has no value, DC 0 assumed
Warning: include: has no value, DC 0 assumed
Warning: include: has no value, DC 0 assumed
Warning: include: has no value, DC 0 assumed
Warning: include: has no value, DC 0 assumed
Warning: include: has no value, DC 0 assumed
Warning: include: has no value, DC 0 assumed
Warning: include: has no value, DC 0 assumed
Warning: include: has no value, DC 0 assumed
Warning: include: has no value, DC 0 assumed
Warning: include: has no value, DC 0 assumed
Warning: include: has no value, DC 0 assumed
Warning: include: has no value, DC 0 assumed
Warning: include: has no value, DC 0 assumed
Warning: include: has no value, DC 0 assumed
Warning: include: has no value, DC 0 assumed
Warning: include: has no value, DC 0 assumed
Warning: include: has no value, DC 0 assumed
Warning: include: has no value, DC 0 assumed
Warning: include: has no value, DC 0 assumed
Warning: include: has no value, DC 0 assumed
Warning: include: has no value, DC 0 assumed
Warning: include: has no value, DC 0 assumed
Warning: include: has no value, DC 0 assumed
Warning: include: has no value, DC 0 assumed
Warning: include: has no value, DC 0 assumed
Warning: include: has no value, DC 0 assumed
Warning: include: has no value, DC 0 assumed
Warning: include: has no value, DC 0 assumed
Warning: include: has no value, DC 0 assumed
Warning: include: has no value, DC 0 assumed
Warning: include: has no value, DC 0 assumed
Warning: include: has no value, DC 0 assumed
Warning: include: has no value, DC 0 assumed
Warning: include: has no value, DC 0 assumed
Warning: include: has no value, DC 0 assumed
Warning: include: has no value, DC 0 assumed
Warning: include: has no value, DC 0 assumed
Warning: include: has no value, DC 0 assumed
Warning: include: has no value, DC 0 assumed
Warning: include: has no value, DC 0 assumed
Warning: include: has no value, DC 0 assumed
Warning: include: has no value, DC 0 assumed
Warning: include: has no value, DC 0 assumed
Warning: include: has no value, DC 0 assumed
Warning: include: has no value, DC 0 assumed
Warning: include: has no value, DC 0 assumed
Warning: include: has no value, DC 0 assumed
Warning: include: has no value, DC 0 assumed
Warning: include: has no value, DC 0 assumed
Warning: include: has no value, DC 0 assumed
Warning: include: has no value, DC 0 assumed
Warning: include: has no value, DC 0 assumed
Warning: include: has no value, DC 0 assumed
Warning: include: has no value, DC 0 assumed
Warning: include: has no value, DC 0 assumed
Warning: include: has no value, DC 0 assumed
Warning: include: has no value, DC 0 assumed
Warning: include: has no value, DC 0 assumed
Warning: include: has no value, DC 0 assumed
Warning: include: has no value, DC 0 assumed
Warning: include: has no value, DC 0 assumed
Warning: include: has no value, DC 0 assumed
Warning: include: has no value, DC 0 assumed
Warning: include: has no value, DC 0 assumed
Warning: include: has no value, DC 0 assumed
Warning: include: has no value, DC 0 assumed
Warning: include: has no value, DC 0 assumed
Warning: include: has no value, DC 0 assumed
Warning: include: has no value, DC 0 assumed
Warning: include: has no value, DC 0 assumed
Warning: include: has no value, DC 0 assumed
Warning: include: has no value, DC 0 assumed
Warning: include: has no value, DC 0 assumed
Warning: include: has no value, DC 0 assumed
Warning: include: has no value, DC 0 assumed
Warning: include: has no value, DC 0 assumed
Warning: include: has no value, DC 0 assumed
Warning: include: has no value, DC 0 assumed
Warning: include: has no value, DC 0 assumed
Warning: include: has no value, DC 0 assumed
Warning: include: has no value, DC 0 assumed
Warning: include: has no value, DC 0 assumed
Warning: include: has no value, DC 0 assumed
Warning: include: has no value, DC 0 assumed
Warning: include: has no value, DC 0 assumed
Warning: include: has no value, DC 0 assumed
Warning: include: has no value, DC 0 assumed
Warning: include: has no value, DC 0 assumed
Warning: include: has no value, DC 0 assumed
Warning: include: has no value, DC 0 assumed
Warning: include: has no value, DC 0 assumed
Warning: include: has no value, DC 0 assumed
Warning: include: has no value, DC 0 assumed
Warning: include: has no value, DC 0 assumed
Warning: include: has no value, DC 0 assumed
Warning: include: has no value, DC 0 assumed
Warning: include: has no value, DC 0 assumed
Warning: include: has no value, DC 0 assumed
Warning: include: has no value, DC 0 assumed
Warning: include: has no value, DC 0 assumed
Warning: include: has no value, DC 0 assumed
Warning: include: has no value, DC 0 assumed
Warning: include: has no value, DC 0 assumed
Warning: include: has no value, DC 0 assumed
Warning: include: has no value, DC 0 assumed
Warning: include: has no value, DC 0 assumed
Warning: include: has no value, DC 0 assumed
Warning: include: has no value, DC 0 assumed
Warning: include: has no value, DC 0 assumed
Warning: include: has no value, DC 0 assumed
Warning: include: has no value, DC 0 assumed
Warning: include: has no value, DC 0 assumed
Warning: include: has no value, DC 0 assumed
Warning: include: has no value, DC 0 assumed
Warning: include: has no value, DC 0 assumed
Warning: include: has no value, DC 0 assumed
Warning: include: has no value, DC 0 assumed
Warning: include: has no value, DC 0 assumed
Warning: include: has no value, DC 0 assumed
Warning: include: has no value, DC 0 assumed
Warning: include: has no value, DC 0 assumed
Warning: include: has no value, DC 0 assumed
Warning: include: has no value, DC 0 assumed
Warning: include: has no value, DC 0 assumed
Warning: include: has no value, DC 0 assumed
Warning: include: has no value, DC 0 assumed
Warning: include: has no value, DC 0 assumed
Warning: include: has no value, DC 0 assumed
Warning: include: has no value, DC 0 assumed
Warning: include: has no value, DC 0 assumed
Warning: include: has no value, DC 0 assumed
Warning: include: has no value, DC 0 assumed
Warning: include: has no value, DC 0 assumed
Warning: include: has no value, DC 0 assumed
Warning: include: has no value, DC 0 assumed
Warning: include: has no value, DC 0 assumed
Warning: include: has no value, DC 0 assumed
Warning: include: has no value, DC 0 assumed
Warning: include: has no value, DC 0 assumed
Warning: include: has no value, DC 0 assumed
Warning: include: has no value, DC 0 assumed
Warning: include: has no value, DC 0 assumed
Warning: include: has no value, DC 0 assumed
Warning: include: has no value, DC 0 assumed
Warning: include: has no value, DC 0 assumed
Warning: include: has no value, DC 0 assumed
Warning: include: has no value, DC 0 assumed
Warning: include: has no value, DC 0 assumed
Warning: include: has no value, DC 0 assumed
Warning: include: has no value, DC 0 assumed
Warning: include: has no value, DC 0 assumed
Warning: include: has no value, DC 0 assumed
Warning: include: has no value, DC 0 assumed
Warning: include: has no value, DC 0 assumed
Warning: include: has no value, DC 0 assumed
Warning: include: has no value, DC 0 assumed
Warning: include: has no value, DC 0 assumed
Warning: include: has no value, DC 0 assumed
Warning: include: has no value, DC 0 assumed
Warning: include: has no value, DC 0 assumed
Warning: include: has no value, DC 0 assumed
Warning: include: has no value, DC 0 assumed
Warning: include: has no value, DC 0 assumed
Warning: include: has no value, DC 0 assumed
Warning: include: has no value, DC 0 assumed
Warning: include: has no value, DC 0 assumed
Warning: include: has no value, DC 0 assumed
Warning: include: has no value, DC 0 assumed
Warning: include: has no value, DC 0 assumed
Warning: include: has no value, DC 0 assumed
Warning: include: has no value, DC 0 assumed
Warning: include: has no value, DC 0 assumed
Warning: include: has no value, DC 0 assumed
Warning: include: has no value, DC 0 assumed
Warning: include: has no value, DC 0 assumed
Warning: include: has no value, DC 0 assumed
Warning: include: has no value, DC 0 assumed
Warning: include: has no value, DC 0 assumed
Warning: include: has no value, DC 0 assumed
Warning: include: has no value, DC 0 assumed
Warning: include: has no value, DC 0 assumed
Warning: include: has no value, DC 0 assumed
Warning: include: has no value, DC 0 assumed
Warning: include: has no value, DC 0 assumed
Warning: include: has no value, DC 0 assumed
Warning: include: has no value, DC 0 assumed
Warning: include: has no value, DC 0 assumed
Warning: include: has no value, DC 0 assumed
Warning: include: has no value, DC 0 assumed
Warning: include: has no value, DC 0 assumed
Warning: include: has no value, DC 0 assumed
Warning: include: has no value, DC 0 assumed
Warning: include: has no value, DC 0 assumed
Warning: include: has no value, DC 0 assumed
Warning: include: has no value, DC 0 assumed
Warning: include: has no value, DC 0 assumed
Warning: include: has no value, DC 0 assumed
Warning: include: has no value, DC 0 assumed
Warning: include: has no value, DC 0 assumed
Warning: include: has no value, DC 0 assumed
Warning: include: has no value, DC 0 assumed
Warning: include: has no value, DC 0 assumed
Warning: include: has no value, DC 0 assumed
Warning: include: has no value, DC 0 assumed
Warning: include: has no value, DC 0 assumed
Warning: include: has no value, DC 0 assumed
Warning: include: has no value, DC 0 assumed
Warning: include: has no value, DC 0 assumed
Warning: include: has no value, DC 0 assumed
Warning: include: has no value, DC 0 assumed
Warning: include: has no value, DC 0 assumed
Warning: include: has no value, DC 0 assumed
Warning: include: has no value, DC 0 assumed
Warning: include: has no value, DC 0 assumed
Warning: include: has no value, DC 0 assumed
Warning: include: has no value, DC 0 assumed
Warning: include: has no value, DC 0 assumed
Warning: include: has no value, DC 0 assumed
Warning: include: has no value, DC 0 assumed
Warning: include: has no value, DC 0 assumed
Warning: include: has no value, DC 0 assumed
Warning: include: has no value, DC 0 assumed
Warning: include: has no value, DC 0 assumed
Warning: include: has no value, DC 0 assumed
Warning: include: has no value, DC 0 assumed
Warning: include: has no value, DC 0 assumed
Warning: include: has no value, DC 0 assumed
Warning: include: has no value, DC 0 assumed
Warning: include: has no value, DC 0 assumed
Warning: include: has no value, DC 0 assumed
Warning: include: has no value, DC 0 assumed
Warning: include: has no value, DC 0 assumed
Warning: include: has no value, DC 0 assumed
Warning: include: has no value, DC 0 assumed
Warning: include: has no value, DC 0 assumed
Warning: include: has no value, DC 0 assumed
Warning: include: has no value, DC 0 assumed
Warning: include: has no value, DC 0 assumed
Warning: include: has no value, DC 0 assumed
Warning: include: has no value, DC 0 assumed
Warning: include: has no value, DC 0 assumed
Warning: include: has no value, DC 0 assumed
Warning: include: has no value, DC 0 assumed
Warning: include: has no value, DC 0 assumed
Warning: include: has no value, DC 0 assumed
Warning: include: has no value, DC 0 assumed
Warning: include: has no value, DC 0 assumed
Warning: include: has no value, DC 0 assumed
Warning: include: has no value, DC 0 assumed
Warning: include: has no value, DC 0 assumed
Warning: include: has no value, DC 0 assumed
Warning: include: has no value, DC 0 assumed
Warning: include: has no value, DC 0 assumed
Warning: include: has no value, DC 0 assumed
Warning: include: has no value, DC 0 assumed
Warning: include: has no value, DC 0 assumed
Warning: include: has no value, DC 0 assumed
Warning: include: has no value, DC 0 assumed
Warning: include: has no value, DC 0 assumed
Warning: include: has no value, DC 0 assumed
Warning: include: has no value, DC 0 assumed
Warning: include: has no value, DC 0 assumed
Warning: include: has no value, DC 0 assumed
Warning: include: has no value, DC 0 assumed
Warning: include: has no value, DC 0 assumed
Warning: include: has no value, DC 0 assumed
Warning: include: has no value, DC 0 assumed
Warning: include: has no value, DC 0 assumed
Warning: include: has no value, DC 0 assumed
Warning: include: has no value, DC 0 assumed
Warning: include: has no value, DC 0 assumed
Warning: include: has no value, DC 0 assumed
Warning: include: has no value, DC 0 assumed
Warning: include: has no value, DC 0 assumed
Warning: include: has no value, DC 0 assumed
Warning: include: has no value, DC 0 assumed
Warning: include: has no value, DC 0 assumed
Warning: include: has no value, DC 0 assumed
Warning: include: has no value, DC 0 assumed
Warning: include: has no value, DC 0 assumed
Warning: include: has no value, DC 0 assumed
Warning: include: has no value, DC 0 assumed
Warning: include: has no value, DC 0 assumed
Warning: include: has no value, DC 0 assumed
Warning: include: has no value, DC 0 assumed
Warning: include: has no value, DC 0 assumed
Warning: include: has no value, DC 0 assumed
Warning: include: has no value, DC 0 assumed
Warning: include: has no value, DC 0 assumed
Warning: include: has no value, DC 0 assumed
Warning: include: has no value, DC 0 assumed
Warning: include: has no value, DC 0 assumed
Warning: include: has no value, DC 0 assumed
Warning: include: has no value, DC 0 assumed
Warning: include: has no value, DC 0 assumed
Warning: include: has no value, DC 0 assumed
Warning: include: has no value, DC 0 assumed
Warning: include: has no value, DC 0 assumed
Warning: include: has no value, DC 0 assumed
Warning: include: has no value, DC 0 assumed
Warning: include: has no value, DC 0 assumed
Warning: include: has no value, DC 0 assumed
Warning: include: has no value, DC 0 assumed
Warning: include: has no value, DC 0 assumed
Warning: include: has no value, DC 0 assumed
Warning: include: has no value, DC 0 assumed
Warning: include: has no value, DC 0 assumed
Warning: include: has no value, DC 0 assumed
Warning: include: has no value, DC 0 assumed
Warning: include: has no value, DC 0 assumed
Warning: include: has no value, DC 0 assumed
Warning: include: has no value, DC 0 assumed
Warning: include: has no value, DC 0 assumed
Warning: include: has no value, DC 0 assumed
Warning: include: has no value, DC 0 assumed
Warning: include: has no value, DC 0 assumed
Warning: include: has no value, DC 0 assumed
Warning: include: has no value, DC 0 assumed
Warning: include: has no value, DC 0 assumed
Warning: include: has no value, DC 0 assumed
Warning: include: has no value, DC 0 assumed
Warning: include: has no value, DC 0 assumed
Warning: include: has no value, DC 0 assumed
Warning: include: has no value, DC 0 assumed
Warning: include: has no value, DC 0 assumed
Warning: include: has no value, DC 0 assumed
Warning: include: has no value, DC 0 assumed
Warning: include: has no value, DC 0 assumed
Warning: include: has no value, DC 0 assumed
Warning: include: has no value, DC 0 assumed
Warning: include: has no value, DC 0 assumed
Warning: include: has no value, DC 0 assumed
Warning: include: has no value, DC 0 assumed
Warning: include: has no value, DC 0 assumed
Warning: include: has no value, DC 0 assumed
Warning: include: has no value, DC 0 assumed
Warning: include: has no value, DC 0 assumed
Warning: include: has no value, DC 0 assumed
Warning: include: has no value, DC 0 assumed
Warning: include: has no value, DC 0 assumed
Warning: include: has no value, DC 0 assumed
Warning: include: has no value, DC 0 assumed
Warning: include: has no value, DC 0 assumed
Warning: include: has no value, DC 0 assumed
Warning: include: has no value, DC 0 assumed
Warning: include: has no value, DC 0 assumed
Warning: include: has no value, DC 0 assumed
Warning: include: has no value, DC 0 assumed
Warning: include: has no value, DC 0 assumed
Warning: include: has no value, DC 0 assumed
Warning: include: has no value, DC 0 assumed
Warning: include: has no value, DC 0 assumed
Warning: include: has no value, DC 0 assumed
Warning: include: has no value, DC 0 assumed
Warning: include: has no value, DC 0 assumed
Warning: include: has no value, DC 0 assumed
Warning: include: has no value, DC 0 assumed
Warning: include: has no value, DC 0 assumed
Warning: include: has no value, DC 0 assumed
Warning: include: has no value, DC 0 assumed
Warning: include: has no value, DC 0 assumed
Warning: include: has no value, DC 0 assumed
Warning: include: has no value, DC 0 assumed
Warning: include: has no value, DC 0 assumed
Warning: include: has no value, DC 0 assumed
Warning: include: has no value, DC 0 assumed
Warning: include: has no value, DC 0 assumed
Warning: include: has no value, DC 0 assumed
Warning: include: has no value, DC 0 assumed
Warning: include: has no value, DC 0 assumed
Warning: include: has no value, DC 0 assumed
Warning: include: has no value, DC 0 assumed
Warning: include: has no value, DC 0 assumed
Warning: include: has no value, DC 0 assumed
Warning: include: has no value, DC 0 assumed
Warning: include: has no value, DC 0 assumed
Warning: include: has no value, DC 0 assumed
Warning: include: has no value, DC 0 assumed
Warning: include: has no value, DC 0 assumed
Warning: include: has no value, DC 0 assumed
Warning: include: has no value, DC 0 assumed
Warning: include: has no value, DC 0 assumed
Warning: include: has no value, DC 0 assumed
Warning: include: has no value, DC 0 assumed
Warning: include: has no value, DC 0 assumed
Warning: include: has no value, DC 0 assumed
Warning: include: has no value, DC 0 assumed
Warning: include: has no value, DC 0 assumed
Warning: include: has no value, DC 0 assumed
Warning: include: has no value, DC 0 assumed
Warning: include: has no value, DC 0 assumed
Warning: include: has no value, DC 0 assumed
Warning: include: has no value, DC 0 assumed
Warning: include: has no value, DC 0 assumed
Warning: include: has no value, DC 0 assumed
Warning: include: has no value, DC 0 assumed
Warning: include: has no value, DC 0 assumed
Warning: include: has no value, DC 0 assumed
Warning: include: has no value, DC 0 assumed
Warning: include: has no value, DC 0 assumed
Warning: include: has no value, DC 0 assumed
Warning: include: has no value, DC 0 assumed
Warning: include: has no value, DC 0 assumed
Warning: include: has no value, DC 0 assumed
Warning: include: has no value, DC 0 assumed
Warning: include: has no value, DC 0 assumed
Warning: include: has no value, DC 0 assumed
Warning: include: has no value, DC 0 assumed
Warning: include: has no value, DC 0 assumed
Warning: include: has no value, DC 0 assumed
Warning: include: has no value, DC 0 assumed
Warning: include: has no value, DC 0 assumed
Warning: include: has no value, DC 0 assumed
Warning: include: has no value, DC 0 assumed
Warning: include: has no value, DC 0 assumed
Warning: include: has no value, DC 0 assumed
Warning: include: has no value, DC 0 assumed
Warning: include: has no value, DC 0 assumed
Warning: include: has no value, DC 0 assumed
Warning: include: has no value, DC 0 assumed
Warning: include: has no value, DC 0 assumed
Warning: include: has no value, DC 0 assumed
Warning: include: has no value, DC 0 assumed
Warning: include: has no value, DC 0 assumed
Warning: include: has no value, DC 0 assumed
Warning: include: has no value, DC 0 assumed
Warning: include: has no value, DC 0 assumed
Warning: include: has no value, DC 0 assumed
Warning: include: has no value, DC 0 assumed
Warning: include: has no value, DC 0 assumed
Warning: include: has no value, DC 0 assumed
Warning: include: has no value, DC 0 assumed
Warning: include: has no value, DC 0 assumed
Warning: include: has no value, DC 0 assumed
Warning: include: has no value, DC 0 assumed
Warning: include: has no value, DC 0 assumed
Warning: include: has no value, DC 0 assumed
Warning: include: has no value, DC 0 assumed
Warning: include: has no value, DC 0 assumed
Warning: include: has no value, DC 0 assumed
Warning: include: has no value, DC 0 assumed
Warning: include: has no value, DC 0 assumed
Warning: include: has no value, DC 0 assumed
Warning: include: has no value, DC 0 assumed
Warning: include: has no value, DC 0 assumed
Warning: include: has no value, DC 0 assumed
Warning: include: has no value, DC 0 assumed
Warning: include: has no value, DC 0 assumed
Warning: include: has no value, DC 0 assumed
Warning: include: has no value, DC 0 assumed
Warning: include: has no value, DC 0 assumed
Warning: include: has no value, DC 0 assumed
Warning: include: has no value, DC 0 assumed
Warning: include: has no value, DC 0 assumed
Warning: include: has no value, DC 0 assumed
Warning: include: has no value, DC 0 assumed
Warning: include: has no value, DC 0 assumed
Warning: include: has no value, DC 0 assumed
Warning: include: has no value, DC 0 assumed
Warning: include: has no value, DC 0 assumed
Warning: include: has no value, DC 0 assumed
Warning: include: has no value, DC 0 assumed
Warning: include: has no value, DC 0 assumed
Warning: include: has no value, DC 0 assumed
Warning: include: has no value, DC 0 assumed
Warning: include: has no value, DC 0 assumed
Warning: include: has no value, DC 0 assumed
Warning: include: has no value, DC 0 assumed
Warning: include: has no value, DC 0 assumed
Warning: include: has no value, DC 0 assumed
Warning: include: has no value, DC 0 assumed
Warning: include: has no value, DC 0 assumed
Warning: include: has no value, DC 0 assumed
Warning: include: has no value, DC 0 assumed
Warning: include: has no value, DC 0 assumed
Warning: include: has no value, DC 0 assumed
Warning: include: has no value, DC 0 assumed
Warning: include: has no value, DC 0 assumed
Warning: include: has no value, DC 0 assumed
Warning: include: has no value, DC 0 assumed
Warning: include: has no value, DC 0 assumed
Warning: include: has no value, DC 0 assumed
Warning: include: has no value, DC 0 assumed
Warning: include: has no value, DC 0 assumed
Warning: include: has no value, DC 0 assumed
Warning: include: has no value, DC 0 assumed
Warning: include: has no value, DC 0 assumed
Warning: include: has no value, DC 0 assumed
Warning: include: has no value, DC 0 assumed
Warning: include: has no value, DC 0 assumed
Warning: include: has no value, DC 0 assumed
Warning: include: has no value, DC 0 assumed
Warning: include: has no value, DC 0 assumed
Warning: include: has no value, DC 0 assumed
Warning: include: has no value, DC 0 assumed
Warning: include: has no value, DC 0 assumed
Warning: include: has no value, DC 0 assumed
Warning: include: has no value, DC 0 assumed
Warning: include: has no value, DC 0 assumed
Warning: include: has no value, DC 0 assumed
Warning: include: has no value, DC 0 assumed
Warning: include: has no value, DC 0 assumed
Warning: include: has no value, DC 0 assumed
Warning: include: has no value, DC 0 assumed
Warning: include: has no value, DC 0 assumed
Warning: include: has no value, DC 0 assumed
Warning: include: has no value, DC 0 assumed
Warning: include: has no value, DC 0 assumed
Warning: include: has no value, DC 0 assumed
Warning: include: has no value, DC 0 assumed
Warning: include: has no value, DC 0 assumed
Warning: include: has no value, DC 0 assumed
Warning: include: has no value, DC 0 assumed
Warning: include: has no value, DC 0 assumed
Warning: include: has no value, DC 0 assumed
Warning: include: has no value, DC 0 assumed
Warning: include: has no value, DC 0 assumed
Warning: include: has no value, DC 0 assumed
Warning: include: has no value, DC 0 assumed
Warning: include: has no value, DC 0 assumed
Warning: include: has no value, DC 0 assumed
Warning: include: has no value, DC 0 assumed
Warning: include: has no value, DC 0 assumed
Warning: include: has no value, DC 0 assumed
Warning: include: has no value, DC 0 assumed
Warning: include: has no value, DC 0 assumed
Warning: include: has no value, DC 0 assumed
Warning: include: has no value, DC 0 assumed
Warning: include: has no value, DC 0 assumed
Warning: include: has no value, DC 0 assumed
Warning: include: has no value, DC 0 assumed
Warning: include: has no value, DC 0 assumed
Warning: include: has no value, DC 0 assumed
Warning: include: has no value, DC 0 assumed
Warning: include: has no value, DC 0 assumed
Warning: include: has no value, DC 0 assumed
Warning: include: has no value, DC 0 assumed
Warning: include: has no value, DC 0 assumed
Warning: include: has no value, DC 0 assumed
Warning: include: has no value, DC 0 assumed
Warning: include: has no value, DC 0 assumed
Warning: include: has no value, DC 0 assumed
Warning: include: has no value, DC 0 assumed
Warning: include: has no value, DC 0 assumed
Warning: include: has no value, DC 0 assumed
Warning: include: has no value, DC 0 assumed
Warning: include: has no value, DC 0 assumed
Warning: include: has no value, DC 0 assumed
Warning: include: has no value, DC 0 assumed
Warning: include: has no value, DC 0 assumed
Warning: include: has no value, DC 0 assumed
Warning: include: has no value, DC 0 assumed
Warning: include: has no value, DC 0 assumed
Warning: include: has no value, DC 0 assumed
Warning: include: has no value, DC 0 assumed
Warning: include: has no value, DC 0 assumed
Warning: include: has no value, DC 0 assumed
Warning: include: has no value, DC 0 assumed
Warning: include: has no value, DC 0 assumed
Warning: include: has no value, DC 0 assumed
Warning: include: has no value, DC 0 assumed
Warning: include: has no value, DC 0 assumed
Warning: include: has no value, DC 0 assumed
Warning: include: has no value, DC 0 assumed
Warning: include: has no value, DC 0 assumed
Warning: include: has no value, DC 0 assumed
Warning: include: has no value, DC 0 assumed
Warning: include: has no value, DC 0 assumed
Warning: include: has no value, DC 0 assumed
Warning: include: has no value, DC 0 assumed
Warning: include: has no value, DC 0 assumed
Warning: include: has no value, DC 0 assumed
Warning: include: has no value, DC 0 assumed
Warning: include: has no value, DC 0 assumed
Warning: include: has no value, DC 0 assumed
Warning: include: has no value, DC 0 assumed
Warning: include: has no value, DC 0 assumed
Warning: include: has no value, DC 0 assumed
Warning: include: has no value, DC 0 assumed
Warning: include: has no value, DC 0 assumed
Warning: include: has no value, DC 0 assumed
Warning: include: has no value, DC 0 assumed
Warning: include: has no value, DC 0 assumed
Warning: include: has no value, DC 0 assumed
Warning: include: has no value, DC 0 assumed
Warning: include: has no value, DC 0 assumed
Warning: include: has no value, DC 0 assumed
Warning: include: has no value, DC 0 assumed
Warning: include: has no value, DC 0 assumed
Warning: include: has no value, DC 0 assumed
Warning: include: has no value, DC 0 assumed
Warning: include: has no value, DC 0 assumed
Warning: include: has no value, DC 0 assumed
Warning: include: has no value, DC 0 assumed
Warning: include: has no value, DC 0 assumed
Warning: include: has no value, DC 0 assumed
Warning: include: has no value, DC 0 assumed
Warning: include: has no value, DC 0 assumed
Warning: include: has no value, DC 0 assumed
Warning: include: has no value, DC 0 assumed
Warning: include: has no value, DC 0 assumed
Warning: include: has no value, DC 0 assumed
Warning: include: has no value, DC 0 assumed
Warning: include: has no value, DC 0 assumed
Warning: include: has no value, DC 0 assumed
Warning: include: has no value, DC 0 assumed
Warning: include: has no value, DC 0 assumed
Warning: include: has no value, DC 0 assumed
Warning: include: has no value, DC 0 assumed
Warning: include: has no value, DC 0 assumed
Warning: include: has no value, DC 0 assumed
Warning: include: has no value, DC 0 assumed
Warning: include: has no value, DC 0 assumed
Warning: include: has no value, DC 0 assumed
Warning: include: has no value, DC 0 assumed
Warning: include: has no value, DC 0 assumed
Warning: include: has no value, DC 0 assumed
Warning: include: has no value, DC 0 assumed
[...]
Warning: include: has no value, DC 0 assumed
Warning: include: has no value, DC 0 assumed
Warning: include: has no value, DC 0 assumed
Warning: include: has no value, DC 0 assumed
Warning: include: has no value, DC 0 assumed
Warning: include: has no value, DC 0 assumed
Warning: include: has no value, DC 0 assumed
Warning: include: has no value, DC 0 assumed
Warning: include: has no value, DC 0 assumed
Warning: include: has no value, DC 0 assumed
Warning: include: has no value, DC 0 assumed
Warning: include: has no value, DC 0 assumed
Warning: include: has no value, DC 0 assumed
Warning: include: has no value, DC 0 assumed
Warning: include: has no value, DC 0 assumed
Warning: include: has no value, DC 0 assumed
Warning: include: has no value, DC 0 assumed
Warning: include: has no value, DC 0 assumed
Warning: include: has no value, DC 0 assumed
Warning: include: has no value, DC 0 assumed
Warning: include: has no value, DC 0 assumed
Warning: include: has no value, DC 0 assumed
Warning: include: has no value, DC 0 assumed
Warning: include: has no value, DC 0 assumed
Warning: include: has no value, DC 0 assumed
Warning: include: has no value, DC 0 assumed
Warning: include: has no value, DC 0 assumed
Warning: include: has no value, DC 0 assumed
Warning: include: has no value, DC 0 assumed
Warning: include: has no value, DC 0 assumed
Warning: include: has no value, DC 0 assumed
Warning: include: has no value, DC 0 assumed
Warning: include: has no value, DC 0 assumed
Warning: include: has no value, DC 0 assumed
Warning: include: has no value, DC 0 assumed
Warning: include: has no value, DC 0 assumed
Warning: include: has no value, DC 0 assumed
Warning: include: has no value, DC 0 assumed
Warning: include: has no value, DC 0 assumed
Warning: include: has no value, DC 0 assumed
Warning: include: has no value, DC 0 assumed
Warning: include: has no value, DC 0 assumed
Warning: include: has no value, DC 0 assumed
Warning: include: has no value, DC 0 assumed
Warning: include: has no value, DC 0 assumed
Warning: include: has no value, DC 0 assumed
Warning: include: has no value, DC 0 assumed
Warning: include: has no value, DC 0 assumed
Warning: include: has no value, DC 0 assumed
Warning: include: has no value, DC 0 assumed
Warning: include: has no value, DC 0 assumed
Warning: include: has no value, DC 0 assumed
Warning: include: has no value, DC 0 assumed
Warning: include: has no value, DC 0 assumed
Warning: include: has no value, DC 0 assumed
Warning: include: has no value, DC 0 assumed
Warning: include: has no value, DC 0 assumed
Warning: include: has no value, DC 0 assumed
Warning: include: has no value, DC 0 assumed
Warning: include: has no value, DC 0 assumed
Warning: include: has no value, DC 0 assumed
Warning: include: has no value, DC 0 assumed
Warning: include: has no value, DC 0 assumed
Warning: include: has no value, DC 0 assumed
Warning: include: has no value, DC 0 assumed
Warning: include: has no value, DC 0 assumed
Warning: include: has no value, DC 0 assumed
Warning: include: has no value, DC 0 assumed
Warning: include: has no value, DC 0 assumed
Warning: include: has no value, DC 0 assumed
Warning: include: has no value, DC 0 assumed
Warning: include: has no value, DC 0 assumed
Warning: include: has no value, DC 0 assumed
Warning: include: has no value, DC 0 assumed
Warning: include: has no value, DC 0 assumed
Warning: include: has no value, DC 0 assumed
Warning: include: has no value, DC 0 assumed
Warning: include: has no value, DC 0 assumed
Warning: include: has no value, DC 0 assumed
Warning: include: has no value, DC 0 assumed
Warning: include: has no value, DC 0 assumed
Warning: include: has no value, DC 0 assumed
Warning: include: has no value, DC 0 assumed
Warning: include: has no value, DC 0 assumed
Warning: include: has no value, DC 0 assumed
Warning: include: has no value, DC 0 assumed
Warning: include: has no value, DC 0 assumed
Warning: include: has no value, DC 0 assumed
Warning: include: has no value, DC 0 assumed
Warning: include: has no value, DC 0 assumed
Warning: include: has no value, DC 0 assumed
Warning: include: has no value, DC 0 assumed
Warning: include: has no value, DC 0 assumed
Warning: include: has no value, DC 0 assumed
Warning: include: has no value, DC 0 assumed
Warning: include: has no value, DC 0 assumed
Warning: include: has no value, DC 0 assumed
Warning: include: has no value, DC 0 assumed
Warning: include: has no value, DC 0 assumed
Warning: include: has no value, DC 0 assumed
Warning: include: has no value, DC 0 assumed
Warning: include: has no value, DC 0 assumed
Warning: include: has no value, DC 0 assumed
Warning: include: has no value, DC 0 assumed
Warning: include: has no value, DC 0 assumed
Warning: include: has no value, DC 0 assumed
Warning: include: has no value, DC 0 assumed
Warning: include: has no value, DC 0 assumed
Warning: include: has no value, DC 0 assumed
Warning: include: has no value, DC 0 assumed
Warning: include: has no value, DC 0 assumed
Warning: include: has no value, DC 0 assumed
Warning: include: has no value, DC 0 assumed
Warning: include: has no value, DC 0 assumed
Warning: include: has no value, DC 0 assumed
Warning: include: has no value, DC 0 assumed
Warning: include: has no value, DC 0 assumed
Warning: include: has no value, DC 0 assumed
Warning: include: has no value, DC 0 assumed
Warning: include: has no value, DC 0 assumed
Warning: include: has no value, DC 0 assumed
Warning: include: has no value, DC 0 assumed
Warning: include: has no value, DC 0 assumed
Warning: include: has no value, DC 0 assumed
Warning: include: has no value, DC 0 assumed
Warning: include: has no value, DC 0 assumed
Warning: include: has no value, DC 0 assumed
Warning: include: has no value, DC 0 assumed
Warning: include: has no value, DC 0 assumed
Warning: include: has no value, DC 0 assumed
Warning: include: has no value, DC 0 assumed
Warning: include: has no value, DC 0 assumed
Warning: include: has no value, DC 0 assumed
Warning: include: has no value, DC 0 assumed
Warning: include: has no value, DC 0 assumed
Warning: include: has no value, DC 0 assumed
Warning: include: has no value, DC 0 assumed
Warning: include: has no value, DC 0 assumed
Warning: include: has no value, DC 0 assumed
Warning: include: has no value, DC 0 assumed
Warning: include: has no value, DC 0 assumed
Warning: include: has no value, DC 0 assumed
Warning: include: has no value, DC 0 assumed
Warning: include: has no value, DC 0 assumed
Warning: include: has no value, DC 0 assumed
Warning: include: has no value, DC 0 assumed
Warning: include: has no value, DC 0 assumed
Warning: include: has no value, DC 0 assumed
Warning: include: has no value, DC 0 assumed
Warning: include: has no value, DC 0 assumed
Warning: include: has no value, DC 0 assumed
Warning: include: has no value, DC 0 assumed
Warning: include: has no value, DC 0 assumed
Warning: include: has no value, DC 0 assumed
Warning: include: has no value, DC 0 assumed
Warning: include: has no value, DC 0 assumed
Warning: include: has no value, DC 0 assumed
Warning: include: has no value, DC 0 assumed
Warning: include: has no value, DC 0 assumed
Warning: include: has no value, DC 0 assumed
Warning: include: has no value, DC 0 assumed
Warning: include: has no value, DC 0 assumed
Warning: include: has no value, DC 0 assumed
Warning: include: has no value, DC 0 assumed
Warning: include: has no value, DC 0 assumed
Warning: include: has no value, DC 0 assumed
Warning: include: has no value, DC 0 assumed
Warning: include: has no value, DC 0 assumed
Warning: include: has no value, DC 0 assumed
Warning: include: has no value, DC 0 assumed
Warning: include: has no value, DC 0 assumed
Warning: include: has no value, DC 0 assumed
Warning: include: has no value, DC 0 assumed
Warning: include: has no value, DC 0 assumed
Warning: include: has no value, DC 0 assumed
Warning: include: has no value, DC 0 assumed
Warning: include: has no value, DC 0 assumed
Warning: include: has no value, DC 0 assumed
Warning: include: has no value, DC 0 assumed
Warning: include: has no value, DC 0 assumed
Warning: include: has no value, DC 0 assumed
Warning: include: has no value, DC 0 assumed
Warning: include: has no value, DC 0 assumed
Warning: include: has no value, DC 0 assumed
Warning: include: has no value, DC 0 assumed
Warning: include: has no value, DC 0 assumed
Warning: include: has no value, DC 0 assumed
Warning: include: has no value, DC 0 assumed
Warning: include: has no value, DC 0 assumed
Warning: include: has no value, DC 0 assumed
Warning: include: has no value, DC 0 assumed
Warning: include: has no value, DC 0 assumed
Warning: include: has no value, DC 0 assumed
Warning: include: has no value, DC 0 assumed
Warning: include: has no value, DC 0 assumed
Warning: include: has no value, DC 0 assumed
Warning: include: has no value, DC 0 assumed
Warning: include: has no value, DC 0 assumed
Warning: include: has no value, DC 0 assumed
Warning: include: has no value, DC 0 assumed
Warning: include: has no value, DC 0 assumed
Warning: include: has no value, DC 0 assumed
Warning: include: has no value, DC 0 assumed
Warning: include: has no value, DC 0 assumed
Warning: include: has no value, DC 0 assumed
Warning: include: has no value, DC 0 assumed
Warning: include: has no value, DC 0 assumed
Warning: include: has no value, DC 0 assumed
Warning: include: has no value, DC 0 assumed
Warning: include: has no value, DC 0 assumed
Warning: include: has no value, DC 0 assumed
Warning: include: has no value, DC 0 assumed
Warning: include: has no value, DC 0 assumed
Warning: include: has no value, DC 0 assumed
Warning: include: has no value, DC 0 assumed
Warning: include: has no value, DC 0 assumed
Warning: include: has no value, DC 0 assumed
Warning: include: has no value, DC 0 assumed
Warning: include: has no value, DC 0 assumed
Warning: include: has no value, DC 0 assumed
Warning: include: has no value, DC 0 assumed
Warning: include: has no value, DC 0 assumed
Warning: include: has no value, DC 0 assumed
Warning: include: has no value, DC 0 assumed
Warning: include: has no value, DC 0 assumed
Warning: include: has no value, DC 0 assumed
Warning: include: has no value, DC 0 assumed
Warning: include: has no value, DC 0 assumed
Warning: include: has no value, DC 0 assumed
Warning: include: has no value, DC 0 assumed
Warning: include: has no value, DC 0 assumed
Warning: include: has no value, DC 0 assumed
Warning: include: has no value, DC 0 assumed
Warning: include: has no value, DC 0 assumed
Warning: include: has no value, DC 0 assumed
Warning: include: has no value, DC 0 assumed
Warning: include: has no value, DC 0 assumed
Warning: include: has no value, DC 0 assumed
Warning: include: has no value, DC 0 assumed
Warning: include: has no value, DC 0 assumed
Warning: include: has no value, DC 0 assumed
Warning: include: has no value, DC 0 assumed
Warning: include: has no value, DC 0 assumed
Warning: include: has no value, DC 0 assumed
Warning: include: has no value, DC 0 assumed
Warning: include: has no value, DC 0 assumed
Warning: include: has no value, DC 0 assumed
Warning: include: has no value, DC 0 assumed
Warning: include: has no value, DC 0 assumed
Warning: include: has no value, DC 0 assumed
Warning: include: has no value, DC 0 assumed
Warning: include: has no value, DC 0 assumed
Warning: include: has no value, DC 0 assumed
Warning: include: has no value, DC 0 assumed
Warning: include: has no value, DC 0 assumed
Warning: include: has no value, DC 0 assumed
Warning: include: has no value, DC 0 assumed
Warning: include: has no value, DC 0 assumed
Warning: include: has no value, DC 0 assumed
Warning: include: has no value, DC 0 assumed
Warning: include: has no value, DC 0 assumed
Warning: include: has no value, DC 0 assumed
Warning: include: has no value, DC 0 assumed
Warning: include: has no value, DC 0 assumed
Warning: include: has no value, DC 0 assumed
Warning: include: has no value, DC 0 assumed
Warning: include: has no value, DC 0 assumed
Warning: include: has no value, DC 0 assumed
Warning: include: has no value, DC 0 assumed
Warning: include: has no value, DC 0 assumed
Warning: include: has no value, DC 0 assumed
Warning: include: has no value, DC 0 assumed
Warning: include: has no value, DC 0 assumed
Warning: include: has no value, DC 0 assumed
Warning: include: has no value, DC 0 assumed
Warning: include: has no value, DC 0 assumed
Warning: include: has no value, DC 0 assumed
Warning: include: has no value, DC 0 assumed
Warning: include: has no value, DC 0 assumed
Warning: include: has no value, DC 0 assumed
Warning: include: has no value, DC 0 assumed
Warning: include: has no value, DC 0 assumed
Warning: include: has no value, DC 0 assumed
Warning: include: has no value, DC 0 assumed
Warning: include: has no value, DC 0 assumed
Warning: include: has no value, DC 0 assumed
Warning: include: has no value, DC 0 assumed
Warning: include: has no value, DC 0 assumed
Warning: include: has no value, DC 0 assumed
Warning: include: has no value, DC 0 assumed
Warning: include: has no value, DC 0 assumed
Warning: include: has no value, DC 0 assumed
Warning: include: has no value, DC 0 assumed
Warning: include: has no value, DC 0 assumed
Warning: include: has no value, DC 0 assumed
Warning: include: has no value, DC 0 assumed
Warning: include: has no value, DC 0 assumed
Warning: include: has no value, DC 0 assumed
Warning: include: has no value, DC 0 assumed
Warning: include: has no value, DC 0 assumed
Warning: include: has no value, DC 0 assumed
Warning: include: has no value, DC 0 assumed
Warning: include: has no value, DC 0 assumed
Warning: include: has no value, DC 0 assumed
Warning: include: has no value, DC 0 assumed
Warning: include: has no value, DC 0 assumed
Warning: include: has no value, DC 0 assumed
Warning: include: has no value, DC 0 assumed
Warning: include: has no value, DC 0 assumed
Warning: include: has no value, DC 0 assumed
Warning: include: has no value, DC 0 assumed
Warning: include: has no value, DC 0 assumed
Warning: include: has no value, DC 0 assumed
Warning: include: has no value, DC 0 assumed
Warning: include: has no value, DC 0 assumed
Warning: include: has no value, DC 0 assumed
Warning: include: has no value, DC 0 assumed
Warning: include: has no value, DC 0 assumed
Warning: include: has no value, DC 0 assumed
Warning: include: has no value, DC 0 assumed
Warning: include: has no value, DC 0 assumed
Warning: include: has no value, DC 0 assumed
Warning: include: has no value, DC 0 assumed
Warning: include: has no value, DC 0 assumed
Warning: include: has no value, DC 0 assumed
Warning: include: has no value, DC 0 assumed
Warning: include: has no value, DC 0 assumed
Warning: include: has no value, DC 0 assumed
Warning: include: has no value, DC 0 assumed
Warning: include: has no value, DC 0 assumed
Warning: include: has no value, DC 0 assumed
Warning: include: has no value, DC 0 assumed
Warning: include: has no value, DC 0 assumed
Warning: include: has no value, DC 0 assumed
Warning: include: has no value, DC 0 assumed
Warning: include: has no value, DC 0 assumed
Warning: include: has no value, DC 0 assumed
Warning: include: has no value, DC 0 assumed
Warning: include: has no value, DC 0 assumed
Warning: include: has no value, DC 0 assumed
Warning: include: has no value, DC 0 assumed
Warning: include: has no value, DC 0 assumed
Warning: include: has no value, DC 0 assumed
Warning: include: has no value, DC 0 assumed
Warning: include: has no value, DC 0 assumed
Warning: include: has no value, DC 0 assumed
Warning: include: has no value, DC 0 assumed
Warning: include: has no value, DC 0 assumed
Warning: include: has no value, DC 0 assumed
Warning: include: has no value, DC 0 assumed
Warning: include: has no value, DC 0 assumed
Warning: include: has no value, DC 0 assumed
Warning: include: has no value, DC 0 assumed
Warning: include: has no value, DC 0 assumed
Warning: include: has no value, DC 0 assumed
Warning: include: has no value, DC 0 assumed
Warning: include: has no value, DC 0 assumed
Warning: include: has no value, DC 0 assumed
Warning: include: has no value, DC 0 assumed
Warning: include: has no value, DC 0 assumed
Warning: include: has no value, DC 0 assumed
Warning: include: has no value, DC 0 assumed
Warning: include: has no value, DC 0 assumed
Warning: include: has no value, DC 0 assumed
Warning: include: has no value, DC 0 assumed
Warning: include: has no value, DC 0 assumed
Warning: include: has no value, DC 0 assumed
Warning: include: has no value, DC 0 assumed
Warning: include: has no value, DC 0 assumed
Warning: include: has no value, DC 0 assumed
Warning: include: has no value, DC 0 assumed
Warning: include: has no value, DC 0 assumed
Warning: include: has no value, DC 0 assumed
Warning: include: has no value, DC 0 assumed
Warning: include: has no value, DC 0 assumed
Warning: include: has no value, DC 0 assumed
Warning: include: has no value, DC 0 assumed
Warning: include: has no value, DC 0 assumed
Warning: include: has no value, DC 0 assumed
Warning: include: has no value, DC 0 assumed
Warning: include: has no value, DC 0 assumed
Warning: include: has no value, DC 0 assumed
Warning: include: has no value, DC 0 assumed
Warning: include: has no value, DC 0 assumed
Warning: include: has no value, DC 0 assumed
Warning: include: has no value, DC 0 assumed
Warning: include: has no value, DC 0 assumed
Warning: include: has no value, DC 0 assumed
Warning: include: has no value, DC 0 assumed
Warning: include: has no value, DC 0 assumed
Warning: include: has no value, DC 0 assumed
Warning: include: has no value, DC 0 assumed
Warning: include: has no value, DC 0 assumed
Warning: include: has no value, DC 0 assumed
Warning: include: has no value, DC 0 assumed
Warning: include: has no value, DC 0 assumed
Warning: include: has no value, DC 0 assumed
Warning: include: has no value, DC 0 assumed
Warning: include: has no value, DC 0 assumed
Warning: include: has no value, DC 0 assumed
Warning: include: has no value, DC 0 assumed
Warning: include: has no value, DC 0 assumed
Warning: include: has no value, DC 0 assumed
Warning: include: has no value, DC 0 assumed
Warning: include: has no value, DC 0 assumed
Warning: include: has no value, DC 0 assumed
Warning: include: has no value, DC 0 assumed
Warning: include: has no value, DC 0 assumed
Warning: include: has no value, DC 0 assumed
Warning: include: has no value, DC 0 assumed
Warning: include: has no value, DC 0 assumed
Warning: include: has no value, DC 0 assumed
Warning: include: has no value, DC 0 assumed
Warning: include: has no value, DC 0 assumed
Warning: include: has no value, DC 0 assumed
Warning: include: has no value, DC 0 assumed
Warning: include: has no value, DC 0 assumed
Warning: include: has no value, DC 0 assumed
Warning: include: has no value, DC 0 assumed
Warning: include: has no value, DC 0 assumed
Warning: include: has no value, DC 0 assumed
Warning: include: has no value, DC 0 assumed
Warning: include: has no value, DC 0 assumed
Warning: include: has no value, DC 0 assumed
Warning: include: has no value, DC 0 assumed
Warning: include: has no value, DC 0 assumed
Warning: include: has no value, DC 0 assumed
Warning: include: has no value, DC 0 assumed
Warning: include: has no value, DC 0 assumed
Warning: include: has no value, DC 0 assumed
Warning: include: has no value, DC 0 assumed
Warning: include: has no value, DC 0 assumed
Warning: include: has no value, DC 0 assumed
Warning: include: has no value, DC 0 assumed
Warning: include: has no value, DC 0 assumed
Warning: include: has no value, DC 0 assumed
Warning: include: has no value, DC 0 assumed
Warning: include: has no value, DC 0 assumed

No. of Data Rows : 9001
Vbg @ 27degC
vbg27c = 9.638673e-01
dVbe/degC & ppm @ 27degC
deriv(vbg)[indx27] = -4.28414e-05
deriv(vbg)[indx27]/vbg27c = -4.44474e-05
ppm real
(vbg[indx70]-vbg[indx0])/vbg[indx27]/(70-0)*1e6 = -4.45945e+01
ngspice-33 done
