
No compatibility mode selected!


Circuit: ** sch_path:

Doing analysis at TEMP = 0.000000 and TNOM = 27.000000

Warning: include: has no value, DC 0 assumed
Warning: include: has no value, DC 0 assumed
Warning: include: has no value, DC 0 assumed
Warning: include: has no value, DC 0 assumed
Warning: include: has no value, DC 0 assumed
Warning: include: has no value, DC 0 assumed
Warning: include: has no value, DC 0 assumed
Warning: include: has no value, DC 0 assumed
Warning: include: has no value, DC 0 assumed
Warning: include: has no value, DC 0 assumed
Warning: include: has no value, DC 0 assumed
Warning: include: has no value, DC 0 assumed
Warning: include: has no value, DC 0 assumed
Warning: include: has no value, DC 0 assumed
Warning: include: has no value, DC 0 assumed
Warning: include: has no value, DC 0 assumed
Warning: include: has no value, DC 0 assumed
Warning: include: has no value, DC 0 assumed
Warning: include: has no value, DC 0 assumed
Warning: include: has no value, DC 0 assumed
Warning: include: has no value, DC 0 assumed
Warning: include: has no value, DC 0 assumed
Warning: include: has no value, DC 0 assumed
Warning: include: has no value, DC 0 assumed
Warning: include: has no value, DC 0 assumed
Warning: include: has no value, DC 0 assumed
Warning: include: has no value, DC 0 assumed
Warning: include: has no value, DC 0 assumed
Warning: include: has no value, DC 0 assumed
Warning: include: has no value, DC 0 assumed
Warning: include: has no value, DC 0 assumed
Warning: include: has no value, DC 0 assumed
Warning: include: has no value, DC 0 assumed
Warning: include: has no value, DC 0 assumed
Warning: include: has no value, DC 0 assumed
Warning: include: has no value, DC 0 assumed
Warning: include: has no value, DC 0 assumed
Warning: include: has no value, DC 0 assumed
Warning: include: has no value, DC 0 assumed
Warning: include: has no value, DC 0 assumed
Warning: include: has no value, DC 0 assumed
Warning: include: has no value, DC 0 assumed
Warning: include: has no value, DC 0 assumed
Warning: include: has no value, DC 0 assumed
Warning: include: has no value, DC 0 assumed
Warning: include: has no value, DC 0 assumed
Warning: include: has no value, DC 0 assumed
Warning: include: has no value, DC 0 assumed
Warning: include: has no value, DC 0 assumed
Warning: include: has no value, DC 0 assumed
Warning: include: has no value, DC 0 assumed
Warning: include: has no value, DC 0 assumed
Warning: include: has no value, DC 0 assumed
Warning: include: has no value, DC 0 assumed
Warning: include: has no value, DC 0 assumed
Warning: include: has no value, DC 0 assumed
Warning: include: has no value, DC 0 assumed
Warning: include: has no value, DC 0 assumed
Warning: include: has no value, DC 0 assumed
Warning: include: has no value, DC 0 assumed
Warning: include: has no value, DC 0 assumed
Warning: include: has no value, DC 0 assumed
Warning: include: has no value, DC 0 assumed
Warning: include: has no value, DC 0 assumed
Warning: include: has no value, DC 0 assumed
Warning: include: has no value, DC 0 assumed
Warning: include: has no value, DC 0 assumed
Warning: include: has no value, DC 0 assumed
Warning: include: has no value, DC 0 assumed
Warning: include: has no value, DC 0 assumed
Warning: include: has no value, DC 0 assumed
Warning: include: has no value, DC 0 assumed
Warning: include: has no value, DC 0 assumed
Warning: include: has no value, DC 0 assumed
Warning: include: has no value, DC 0 assumed
Warning: include: has no value, DC 0 assumed
Warning: include: has no value, DC 0 assumed
Warning: include: has no value, DC 0 assumed
Warning: include: has no value, DC 0 assumed
Warning: include: has no value, DC 0 assumed
Warning: include: has no value, DC 0 assumed
Warning: include: has no value, DC 0 assumed
Warning: include: has no value, DC 0 assumed
Warning: include: has no value, DC 0 assumed
Warning: include: has no value, DC 0 assumed
Warning: include: has no value, DC 0 assumed
Warning: include: has no value, DC 0 assumed
Warning: include: has no value, DC 0 assumed
Warning: include: has no value, DC 0 assumed
Warning: include: has no value, DC 0 assumed
Warning: include: has no value, DC 0 assumed
Warning: include: has no value, DC 0 assumed
Warning: include: has no value, DC 0 assumed
Warning: include: has no value, DC 0 assumed
Warning: include: has no value, DC 0 assumed
Warning: include: has no value, DC 0 assumed
Warning: include: has no value, DC 0 assumed
Warning: include: has no value, DC 0 assumed
Warning: include: has no value, DC 0 assumed
Warning: include: has no value, DC 0 assumed
Warning: include: has no value, DC 0 assumed
Warning: include: has no value, DC 0 assumed
Warning: include: has no value, DC 0 assumed
Warning: include: has no value, DC 0 assumed
Warning: include: has no value, DC 0 assumed
Warning: include: has no value, DC 0 assumed
Warning: include: has no value, DC 0 assumed
Warning: include: has no value, DC 0 assumed
Warning: include: has no value, DC 0 assumed
Warning: include: has no value, DC 0 assumed
Warning: include: has no value, DC 0 assumed
Warning: include: has no value, DC 0 assumed
Warning: include: has no value, DC 0 assumed
Warning: include: has no value, DC 0 assumed
Warning: include: has no value, DC 0 assumed
Warning: include: has no value, DC 0 assumed
Warning: include: has no value, DC 0 assumed
Warning: include: has no value, DC 0 assumed
Warning: include: has no value, DC 0 assumed
Warning: include: has no value, DC 0 assumed
Warning: include: has no value, DC 0 assumed
Warning: include: has no value, DC 0 assumed
Warning: include: has no value, DC 0 assumed
Warning: include: has no value, DC 0 assumed
Warning: include: has no value, DC 0 assumed
Warning: include: has no value, DC 0 assumed
Warning: include: has no value, DC 0 assumed
Warning: include: has no value, DC 0 assumed
Warning: include: has no value, DC 0 assumed
Warning: include: has no value, DC 0 assumed
Warning: include: has no value, DC 0 assumed
Warning: include: has no value, DC 0 assumed
Warning: include: has no value, DC 0 assumed
Warning: include: has no value, DC 0 assumed
Warning: include: has no value, DC 0 assumed
Warning: include: has no value, DC 0 assumed
Warning: include: has no value, DC 0 assumed
Warning: include: has no value, DC 0 assumed
Warning: include: has no value, DC 0 assumed
Warning: include: has no value, DC 0 assumed
Warning: include: has no value, DC 0 assumed
Warning: include: has no value, DC 0 assumed
Warning: include: has no value, DC 0 assumed
Warning: include: has no value, DC 0 assumed
Warning: include: has no value, DC 0 assumed
Warning: include: has no value, DC 0 assumed
Warning: include: has no value, DC 0 assumed
Warning: include: has no value, DC 0 assumed
Warning: include: has no value, DC 0 assumed
Warning: include: has no value, DC 0 assumed
Warning: include: has no value, DC 0 assumed
Warning: include: has no value, DC 0 assumed
Warning: include: has no value, DC 0 assumed
Warning: include: has no value, DC 0 assumed
Warning: include: has no value, DC 0 assumed
Warning: include: has no value, DC 0 assumed
Warning: include: has no value, DC 0 assumed
Warning: include: has no value, DC 0 assumed
Warning: include: has no value, DC 0 assumed
Warning: include: has no value, DC 0 assumed
Warning: include: has no value, DC 0 assumed
Warning: include: has no value, DC 0 assumed
Warning: include: has no value, DC 0 assumed
Warning: include: has no value, DC 0 assumed
Warning: include: has no value, DC 0 assumed
Warning: include: has no value, DC 0 assumed
Warning: include: has no value, DC 0 assumed
Warning: include: has no value, DC 0 assumed
Warning: include: has no value, DC 0 assumed
Warning: include: has no value, DC 0 assumed
Warning: include: has no value, DC 0 assumed
Warning: include: has no value, DC 0 assumed
Warning: include: has no value, DC 0 assumed
Warning: include: has no value, DC 0 assumed
Warning: include: has no value, DC 0 assumed
Warning: include: has no value, DC 0 assumed
Warning: include: has no value, DC 0 assumed
Warning: include: has no value, DC 0 assumed
Warning: include: has no value, DC 0 assumed
Warning: include: has no value, DC 0 assumed
Warning: include: has no value, DC 0 assumed
Warning: include: has no value, DC 0 assumed
Warning: include: has no value, DC 0 assumed
Warning: include: has no value, DC 0 assumed
Warning: include: has no value, DC 0 assumed
Warning: include: has no value, DC 0 assumed
Warning: include: has no value, DC 0 assumed
Warning: include: has no value, DC 0 assumed
Warning: include: has no value, DC 0 assumed
Warning: include: has no value, DC 0 assumed
Warning: include: has no value, DC 0 assumed
Warning: include: has no value, DC 0 assumed
Warning: include: has no value, DC 0 assumed
Warning: include: has no value, DC 0 assumed
Warning: include: has no value, DC 0 assumed
Warning: include: has no value, DC 0 assumed
Warning: include: has no value, DC 0 assumed
Warning: include: has no value, DC 0 assumed
Warning: include: has no value, DC 0 assumed
Warning: include: has no value, DC 0 assumed
Warning: include: has no value, DC 0 assumed
Warning: include: has no value, DC 0 assumed
Warning: include: has no value, DC 0 assumed
Warning: include: has no value, DC 0 assumed
Warning: include: has no value, DC 0 assumed
Warning: include: has no value, DC 0 assumed
Warning: include: has no value, DC 0 assumed
Warning: include: has no value, DC 0 assumed
Warning: include: has no value, DC 0 assumed
Warning: include: has no value, DC 0 assumed
Warning: include: has no value, DC 0 assumed
Warning: include: has no value, DC 0 assumed
Warning: include: has no value, DC 0 assumed
Warning: include: has no value, DC 0 assumed
Warning: include: has no value, DC 0 assumed
Warning: include: has no value, DC 0 assumed
Warning: include: has no value, DC 0 assumed
Warning: include: has no value, DC 0 assumed
Warning: include: has no value, DC 0 assumed
Warning: include: has no value, DC 0 assumed
Warning: include: has no value, DC 0 assumed
Warning: include: has no value, DC 0 assumed
Warning: include: has no value, DC 0 assumed
Warning: include: has no value, DC 0 assumed
Warning: include: has no value, DC 0 assumed
Warning: include: has no value, DC 0 assumed
Warning: include: has no value, DC 0 assumed
Warning: include: has no value, DC 0 assumed
Warning: include: has no value, DC 0 assumed
Warning: include: has no value, DC 0 assumed
Warning: include: has no value, DC 0 assumed
Warning: include: has no value, DC 0 assumed
Warning: include: has no value, DC 0 assumed
Warning: include: has no value, DC 0 assumed
Warning: include: has no value, DC 0 assumed
Warning: include: has no value, DC 0 assumed
Warning: include: has no value, DC 0 assumed
Warning: include: has no value, DC 0 assumed
Warning: include: has no value, DC 0 assumed
Warning: include: has no value, DC 0 assumed
Warning: include: has no value, DC 0 assumed
Warning: include: has no value, DC 0 assumed
Warning: include: has no value, DC 0 assumed
Warning: include: has no value, DC 0 assumed
Warning: include: has no value, DC 0 assumed
Warning: include: has no value, DC 0 assumed
Warning: include: has no value, DC 0 assumed
Warning: include: has no value, DC 0 assumed
Warning: include: has no value, DC 0 assumed
Warning: include: has no value, DC 0 assumed
Warning: include: has no value, DC 0 assumed
Warning: include: has no value, DC 0 assumed
Warning: include: has no value, DC 0 assumed
Warning: include: has no value, DC 0 assumed
Warning: include: has no value, DC 0 assumed
Warning: include: has no value, DC 0 assumed
Warning: include: has no value, DC 0 assumed
Warning: include: has no value, DC 0 assumed
Warning: include: has no value, DC 0 assumed
Warning: include: has no value, DC 0 assumed
Warning: include: has no value, DC 0 assumed
Warning: include: has no value, DC 0 assumed
Warning: include: has no value, DC 0 assumed
Warning: include: has no value, DC 0 assumed
Warning: include: has no value, DC 0 assumed
Warning: include: has no value, DC 0 assumed
Warning: include: has no value, DC 0 assumed
Warning: include: has no value, DC 0 assumed
Warning: include: has no value, DC 0 assumed
Warning: include: has no value, DC 0 assumed
Warning: include: has no value, DC 0 assumed
Warning: include: has no value, DC 0 assumed
Warning: include: has no value, DC 0 assumed
Warning: include: has no value, DC 0 assumed
Warning: include: has no value, DC 0 assumed
Warning: include: has no value, DC 0 assumed
Warning: include: has no value, DC 0 assumed
Warning: include: has no value, DC 0 assumed
Warning: include: has no value, DC 0 assumed
Warning: include: has no value, DC 0 assumed
Warning: include: has no value, DC 0 assumed
Warning: include: has no value, DC 0 assumed
Warning: include: has no value, DC 0 assumed
Warning: include: has no value, DC 0 assumed
Warning: include: has no value, DC 0 assumed
Warning: include: has no value, DC 0 assumed
Warning: include: has no value, DC 0 assumed
Warning: include: has no value, DC 0 assumed
Warning: include: has no value, DC 0 assumed
Warning: include: has no value, DC 0 assumed
Warning: include: has no value, DC 0 assumed
Warning: include: has no value, DC 0 assumed
Warning: include: has no value, DC 0 assumed
Warning: include: has no value, DC 0 assumed
Warning: include: has no value, DC 0 assumed
Warning: include: has no value, DC 0 assumed
Warning: include: has no value, DC 0 assumed
Warning: include: has no value, DC 0 assumed
Warning: include: has no value, DC 0 assumed
Warning: include: has no value, DC 0 assumed
Warning: include: has no value, DC 0 assumed
Warning: include: has no value, DC 0 assumed
Warning: include: has no value, DC 0 assumed
Warning: include: has no value, DC 0 assumed
Warning: include: has no value, DC 0 assumed
Warning: include: has no value, DC 0 assumed
Warning: include: has no value, DC 0 assumed
Warning: include: has no value, DC 0 assumed
Warning: include: has no value, DC 0 assumed
Warning: include: has no value, DC 0 assumed
Warning: include: has no value, DC 0 assumed
Warning: include: has no value, DC 0 assumed
Warning: include: has no value, DC 0 assumed
Warning: include: has no value, DC 0 assumed
Warning: include: has no value, DC 0 assumed
Warning: include: has no value, DC 0 assumed
Warning: include: has no value, DC 0 assumed
Warning: include: has no value, DC 0 assumed
Warning: include: has no value, DC 0 assumed
Warning: include: has no value, DC 0 assumed
Warning: include: has no value, DC 0 assumed
Warning: include: has no value, DC 0 assumed
Warning: include: has no value, DC 0 assumed
Warning: include: has no value, DC 0 assumed
Warning: include: has no value, DC 0 assumed
Warning: include: has no value, DC 0 assumed
Warning: include: has no value, DC 0 assumed
Warning: include: has no value, DC 0 assumed
Warning: include: has no value, DC 0 assumed
Warning: include: has no value, DC 0 assumed
Warning: include: has no value, DC 0 assumed
Warning: include: has no value, DC 0 assumed
Warning: include: has no value, DC 0 assumed
Warning: include: has no value, DC 0 assumed
Warning: include: has no value, DC 0 assumed
Warning: include: has no value, DC 0 assumed
Warning: include: has no value, DC 0 assumed
Warning: include: has no value, DC 0 assumed
Warning: include: has no value, DC 0 assumed
Warning: include: has no value, DC 0 assumed
Warning: include: has no value, DC 0 assumed
Warning: include: has no value, DC 0 assumed
Warning: include: has no value, DC 0 assumed
Warning: include: has no value, DC 0 assumed
Warning: include: has no value, DC 0 assumed
Warning: include: has no value, DC 0 assumed
Warning: include: has no value, DC 0 assumed
Warning: include: has no value, DC 0 assumed
Warning: include: has no value, DC 0 assumed
Warning: include: has no value, DC 0 assumed
Warning: include: has no value, DC 0 assumed
Warning: include: has no value, DC 0 assumed
Warning: include: has no value, DC 0 assumed
Warning: include: has no value, DC 0 assumed
Warning: include: has no value, DC 0 assumed
Warning: include: has no value, DC 0 assumed
Warning: include: has no value, DC 0 assumed
Warning: include: has no value, DC 0 assumed
Warning: include: has no value, DC 0 assumed
Warning: include: has no value, DC 0 assumed
Warning: include: has no value, DC 0 assumed
Warning: include: has no value, DC 0 assumed
Warning: include: has no value, DC 0 assumed
Warning: include: has no value, DC 0 assumed
Warning: include: has no value, DC 0 assumed
Warning: include: has no value, DC 0 assumed
Warning: include: has no value, DC 0 assumed
Warning: include: has no value, DC 0 assumed
Warning: include: has no value, DC 0 assumed
Warning: include: has no value, DC 0 assumed
Warning: include: has no value, DC 0 assumed
Warning: include: has no value, DC 0 assumed
Warning: include: has no value, DC 0 assumed
Warning: include: has no value, DC 0 assumed
Warning: include: has no value, DC 0 assumed
Warning: include: has no value, DC 0 assumed
Warning: include: has no value, DC 0 assumed
Warning: include: has no value, DC 0 assumed
Warning: include: has no value, DC 0 assumed
Warning: include: has no value, DC 0 assumed
Warning: include: has no value, DC 0 assumed
Warning: include: has no value, DC 0 assumed
Warning: include: has no value, DC 0 assumed
Warning: include: has no value, DC 0 assumed
Warning: include: has no value, DC 0 assumed
Warning: include: has no value, DC 0 assumed
Warning: include: has no value, DC 0 assumed
Warning: include: has no value, DC 0 assumed
Warning: include: has no value, DC 0 assumed
Warning: include: has no value, DC 0 assumed
Warning: include: has no value, DC 0 assumed
Warning: include: has no value, DC 0 assumed
Warning: include: has no value, DC 0 assumed
Warning: include: has no value, DC 0 assumed
Warning: include: has no value, DC 0 assumed
Warning: include: has no value, DC 0 assumed
Warning: include: has no value, DC 0 assumed
Warning: include: has no value, DC 0 assumed
Warning: include: has no value, DC 0 assumed
Warning: include: has no value, DC 0 assumed
Warning: include: has no value, DC 0 assumed
Warning: include: has no value, DC 0 assumed
Warning: include: has no value, DC 0 assumed
Warning: include: has no value, DC 0 assumed
Warning: include: has no value, DC 0 assumed
Warning: include: has no value, DC 0 assumed
Warning: include: has no value, DC 0 assumed
Warning: include: has no value, DC 0 assumed
Warning: include: has no value, DC 0 assumed
Warning: include: has no value, DC 0 assumed
Warning: include: has no value, DC 0 assumed
Warning: include: has no value, DC 0 assumed
Warning: include: has no value, DC 0 assumed
Warning: include: has no value, DC 0 assumed
Warning: include: has no value, DC 0 assumed
Warning: include: has no value, DC 0 assumed
Warning: include: has no value, DC 0 assumed
Warning: include: has no value, DC 0 assumed
Warning: include: has no value, DC 0 assumed
Warning: include: has no value, DC 0 assumed
Warning: include: has no value, DC 0 assumed
Warning: include: has no value, DC 0 assumed
Warning: include: has no value, DC 0 assumed
Warning: include: has no value, DC 0 assumed
Warning: include: has no value, DC 0 assumed
Warning: include: has no value, DC 0 assumed
Warning: include: has no value, DC 0 assumed
Warning: include: has no value, DC 0 assumed
Warning: include: has no value, DC 0 assumed
Warning: include: has no value, DC 0 assumed
Warning: include: has no value, DC 0 assumed
Warning: include: has no value, DC 0 assumed
Warning: include: has no value, DC 0 assumed
Warning: include: has no value, DC 0 assumed
Warning: include: has no value, DC 0 assumed
Warning: include: has no value, DC 0 assumed
Warning: include: has no value, DC 0 assumed
Warning: include: has no value, DC 0 assumed
Warning: include: has no value, DC 0 assumed
Warning: include: has no value, DC 0 assumed
Warning: include: has no value, DC 0 assumed
Warning: include: has no value, DC 0 assumed
Warning: include: has no value, DC 0 assumed
Warning: include: has no value, DC 0 assumed
Warning: include: has no value, DC 0 assumed
Warning: include: has no value, DC 0 assumed
Warning: include: has no value, DC 0 assumed
Warning: include: has no value, DC 0 assumed
Warning: include: has no value, DC 0 assumed
Warning: include: has no value, DC 0 assumed
Warning: include: has no value, DC 0 assumed
Warning: include: has no value, DC 0 assumed
Warning: include: has no value, DC 0 assumed
Warning: include: has no value, DC 0 assumed
Warning: include: has no value, DC 0 assumed
Warning: include: has no value, DC 0 assumed
Warning: include: has no value, DC 0 assumed
Warning: include: has no value, DC 0 assumed
Warning: include: has no value, DC 0 assumed
Warning: include: has no value, DC 0 assumed
Warning: include: has no value, DC 0 assumed
Warning: include: has no value, DC 0 assumed
Warning: include: has no value, DC 0 assumed
Warning: include: has no value, DC 0 assumed
Warning: include: has no value, DC 0 assumed
Warning: include: has no value, DC 0 assumed
Warning: include: has no value, DC 0 assumed
Warning: include: has no value, DC 0 assumed
Warning: include: has no value, DC 0 assumed
Warning: include: has no value, DC 0 assumed
Warning: include: has no value, DC 0 assumed
Warning: include: has no value, DC 0 assumed
Warning: include: has no value, DC 0 assumed
Warning: include: has no value, DC 0 assumed
Warning: include: has no value, DC 0 assumed
Warning: include: has no value, DC 0 assumed
Warning: include: has no value, DC 0 assumed
Warning: include: has no value, DC 0 assumed
Warning: include: has no value, DC 0 assumed
Warning: include: has no value, DC 0 assumed
Warning: include: has no value, DC 0 assumed
Warning: include: has no value, DC 0 assumed
Warning: include: has no value, DC 0 assumed
Warning: include: has no value, DC 0 assumed
Warning: include: has no value, DC 0 assumed
Warning: include: has no value, DC 0 assumed
Warning: include: has no value, DC 0 assumed
Warning: include: has no value, DC 0 assumed
Warning: include: has no value, DC 0 assumed
Warning: include: has no value, DC 0 assumed
Warning: include: has no value, DC 0 assumed
Warning: include: has no value, DC 0 assumed
Warning: include: has no value, DC 0 assumed
Warning: include: has no value, DC 0 assumed
Warning: include: has no value, DC 0 assumed
Warning: include: has no value, DC 0 assumed
Warning: include: has no value, DC 0 assumed
Warning: include: has no value, DC 0 assumed
Warning: include: has no value, DC 0 assumed
Warning: include: has no value, DC 0 assumed
Warning: include: has no value, DC 0 assumed
Warning: include: has no value, DC 0 assumed
Warning: include: has no value, DC 0 assumed
Warning: include: has no value, DC 0 assumed
Warning: include: has no value, DC 0 assumed
Warning: include: has no value, DC 0 assumed
Warning: include: has no value, DC 0 assumed
Warning: include: has no value, DC 0 assumed
Warning: include: has no value, DC 0 assumed
Warning: include: has no value, DC 0 assumed
Warning: include: has no value, DC 0 assumed
Warning: include: has no value, DC 0 assumed
Warning: include: has no value, DC 0 assumed
Warning: include: has no value, DC 0 assumed
Warning: include: has no value, DC 0 assumed
Warning: include: has no value, DC 0 assumed
Warning: include: has no value, DC 0 assumed
Warning: include: has no value, DC 0 assumed
Warning: include: has no value, DC 0 assumed
Warning: include: has no value, DC 0 assumed
Warning: include: has no value, DC 0 assumed
Warning: include: has no value, DC 0 assumed
Warning: include: has no value, DC 0 assumed
Warning: include: has no value, DC 0 assumed
Warning: include: has no value, DC 0 assumed
Warning: include: has no value, DC 0 assumed
Warning: include: has no value, DC 0 assumed
Warning: include: has no value, DC 0 assumed
Warning: include: has no value, DC 0 assumed
Warning: include: has no value, DC 0 assumed
Warning: include: has no value, DC 0 assumed
Warning: include: has no value, DC 0 assumed
Warning: include: has no value, DC 0 assumed
Warning: include: has no value, DC 0 assumed
Warning: include: has no value, DC 0 assumed
Warning: include: has no value, DC 0 assumed
Warning: include: has no value, DC 0 assumed
Warning: include: has no value, DC 0 assumed
Warning: include: has no value, DC 0 assumed
Warning: include: has no value, DC 0 assumed
Warning: include: has no value, DC 0 assumed
Warning: include: has no value, DC 0 assumed
Warning: include: has no value, DC 0 assumed
Warning: include: has no value, DC 0 assumed
Warning: include: has no value, DC 0 assumed
Warning: include: has no value, DC 0 assumed
Warning: include: has no value, DC 0 assumed
Warning: include: has no value, DC 0 assumed
Warning: include: has no value, DC 0 assumed
Warning: include: has no value, DC 0 assumed
Warning: include: has no value, DC 0 assumed
Warning: include: has no value, DC 0 assumed
Warning: include: has no value, DC 0 assumed
Warning: include: has no value, DC 0 assumed
Warning: include: has no value, DC 0 assumed
Warning: include: has no value, DC 0 assumed
Warning: include: has no value, DC 0 assumed
Warning: include: has no value, DC 0 assumed
Warning: include: has no value, DC 0 assumed
Warning: include: has no value, DC 0 assumed
Warning: include: has no value, DC 0 assumed
Warning: include: has no value, DC 0 assumed
Warning: include: has no value, DC 0 assumed
Warning: include: has no value, DC 0 assumed
Warning: include: has no value, DC 0 assumed
Warning: include: has no value, DC 0 assumed
Warning: include: has no value, DC 0 assumed
Warning: include: has no value, DC 0 assumed
Warning: include: has no value, DC 0 assumed
Warning: include: has no value, DC 0 assumed
Warning: include: has no value, DC 0 assumed
Warning: include: has no value, DC 0 assumed
Warning: include: has no value, DC 0 assumed
Warning: include: has no value, DC 0 assumed
Warning: include: has no value, DC 0 assumed
Warning: include: has no value, DC 0 assumed
Warning: include: has no value, DC 0 assumed
Warning: include: has no value, DC 0 assumed
Warning: include: has no value, DC 0 assumed
Warning: include: has no value, DC 0 assumed
Warning: include: has no value, DC 0 assumed
Warning: include: has no value, DC 0 assumed
Warning: include: has no value, DC 0 assumed
Warning: include: has no value, DC 0 assumed
Warning: include: has no value, DC 0 assumed
Warning: include: has no value, DC 0 assumed
Warning: include: has no value, DC 0 assumed
Warning: include: has no value, DC 0 assumed
Warning: include: has no value, DC 0 assumed
Warning: include: has no value, DC 0 assumed
Warning: include: has no value, DC 0 assumed
Warning: include: has no value, DC 0 assumed
Warning: include: has no value, DC 0 assumed
Warning: include: has no value, DC 0 assumed
Warning: include: has no value, DC 0 assumed
Warning: include: has no value, DC 0 assumed
Warning: include: has no value, DC 0 assumed
Warning: include: has no value, DC 0 assumed
Warning: include: has no value, DC 0 assumed
Warning: include: has no value, DC 0 assumed
Warning: include: has no value, DC 0 assumed
Warning: include: has no value, DC 0 assumed
Warning: include: has no value, DC 0 assumed
Warning: include: has no value, DC 0 assumed
Warning: include: has no value, DC 0 assumed
Warning: include: has no value, DC 0 assumed
Warning: include: has no value, DC 0 assumed
Warning: include: has no value, DC 0 assumed
Warning: include: has no value, DC 0 assumed
Warning: include: has no value, DC 0 assumed
Warning: include: has no value, DC 0 assumed
Warning: include: has no value, DC 0 assumed
Warning: include: has no value, DC 0 assumed
Warning: include: has no value, DC 0 assumed
Warning: include: has no value, DC 0 assumed
Warning: include: has no value, DC 0 assumed
Warning: include: has no value, DC 0 assumed
Warning: include: has no value, DC 0 assumed
Warning: include: has no value, DC 0 assumed
Warning: include: has no value, DC 0 assumed
Warning: include: has no value, DC 0 assumed
Warning: include: has no value, DC 0 assumed
Warning: include: has no value, DC 0 assumed
Warning: include: has no value, DC 0 assumed
Warning: include: has no value, DC 0 assumed
Warning: include: has no value, DC 0 assumed
Warning: include: has no value, DC 0 assumed
Warning: include: has no value, DC 0 assumed
Warning: include: has no value, DC 0 assumed
Warning: include: has no value, DC 0 assumed
Warning: include: has no value, DC 0 assumed
Warning: include: has no value, DC 0 assumed
Warning: include: has no value, DC 0 assumed
Warning: include: has no value, DC 0 assumed
Warning: include: has no value, DC 0 assumed
Warning: include: has no value, DC 0 assumed
Warning: include: has no value, DC 0 assumed
Warning: include: has no value, DC 0 assumed
Warning: include: has no value, DC 0 assumed
Warning: include: has no value, DC 0 assumed
Warning: include: has no value, DC 0 assumed
Warning: include: has no value, DC 0 assumed
Warning: include: has no value, DC 0 assumed
Warning: include: has no value, DC 0 assumed
Warning: include: has no value, DC 0 assumed
Warning: include: has no value, DC 0 assumed
Warning: include: has no value, DC 0 assumed
Warning: include: has no value, DC 0 assumed
Warning: include: has no value, DC 0 assumed
Warning: include: has no value, DC 0 assumed
Warning: include: has no value, DC 0 assumed
Warning: include: has no value, DC 0 assumed
Warning: include: has no value, DC 0 assumed
Warning: include: has no value, DC 0 assumed
Warning: include: has no value, DC 0 assumed
Warning: include: has no value, DC 0 assumed
Warning: include: has no value, DC 0 assumed
Warning: include: has no value, DC 0 assumed
Warning: include: has no value, DC 0 assumed
Warning: include: has no value, DC 0 assumed
Warning: include: has no value, DC 0 assumed
Warning: include: has no value, DC 0 assumed
Warning: include: has no value, DC 0 assumed
Warning: include: has no value, DC 0 assumed
Warning: include: has no value, DC 0 assumed
Warning: include: has no value, DC 0 assumed
Warning: include: has no value, DC 0 assumed
Warning: include: has no value, DC 0 assumed
Warning: include: has no value, DC 0 assumed
Warning: include: has no value, DC 0 assumed
Warning: include: has no value, DC 0 assumed
Warning: include: has no value, DC 0 assumed
Warning: include: has no value, DC 0 assumed
Warning: include: has no value, DC 0 assumed
Warning: include: has no value, DC 0 assumed
Warning: include: has no value, DC 0 assumed
Warning: include: has no value, DC 0 assumed
Warning: include: has no value, DC 0 assumed
Warning: include: has no value, DC 0 assumed
Warning: include: has no value, DC 0 assumed
Warning: include: has no value, DC 0 assumed
Warning: include: has no value, DC 0 assumed
Warning: include: has no value, DC 0 assumed
Warning: include: has no value, DC 0 assumed
Warning: include: has no value, DC 0 assumed
Warning: include: has no value, DC 0 assumed
Warning: include: has no value, DC 0 assumed
Warning: include: has no value, DC 0 assumed
Warning: include: has no value, DC 0 assumed
Warning: include: has no value, DC 0 assumed
Warning: include: has no value, DC 0 assumed
Warning: include: has no value, DC 0 assumed
Warning: include: has no value, DC 0 assumed
Warning: include: has no value, DC 0 assumed
Warning: include: has no value, DC 0 assumed
Warning: include: has no value, DC 0 assumed
Warning: include: has no value, DC 0 assumed
Warning: include: has no value, DC 0 assumed
Warning: include: has no value, DC 0 assumed
Warning: include: has no value, DC 0 assumed
Warning: include: has no value, DC 0 assumed
Warning: include: has no value, DC 0 assumed
Warning: include: has no value, DC 0 assumed
Warning: include: has no value, DC 0 assumed
Warning: include: has no value, DC 0 assumed
Warning: include: has no value, DC 0 assumed
Warning: include: has no value, DC 0 assumed
Warning: include: has no value, DC 0 assumed
Warning: include: has no value, DC 0 assumed
Warning: include: has no value, DC 0 assumed
Warning: include: has no value, DC 0 assumed
Warning: include: has no value, DC 0 assumed
Warning: include: has no value, DC 0 assumed
Warning: include: has no value, DC 0 assumed
Warning: include: has no value, DC 0 assumed
Warning: include: has no value, DC 0 assumed
Warning: include: has no value, DC 0 assumed
Warning: include: has no value, DC 0 assumed
Warning: include: has no value, DC 0 assumed
Warning: include: has no value, DC 0 assumed
Warning: include: has no value, DC 0 assumed
Warning: include: has no value, DC 0 assumed
Warning: include: has no value, DC 0 assumed
Warning: include: has no value, DC 0 assumed
Warning: include: has no value, DC 0 assumed
Warning: include: has no value, DC 0 assumed
Warning: include: has no value, DC 0 assumed
Warning: include: has no value, DC 0 assumed
Warning: include: has no value, DC 0 assumed
Warning: include: has no value, DC 0 assumed
Warning: include: has no value, DC 0 assumed
Warning: include: has no value, DC 0 assumed
Warning: include: has no value, DC 0 assumed
Warning: include: has no value, DC 0 assumed
Warning: include: has no value, DC 0 assumed
Warning: include: has no value, DC 0 assumed
Warning: include: has no value, DC 0 assumed
Warning: include: has no value, DC 0 assumed
Warning: include: has no value, DC 0 assumed
Warning: include: has no value, DC 0 assumed
Warning: include: has no value, DC 0 assumed
Warning: include: has no value, DC 0 assumed
Warning: include: has no value, DC 0 assumed
Warning: include: has no value, DC 0 assumed
Warning: include: has no value, DC 0 assumed
Warning: include: has no value, DC 0 assumed
Warning: include: has no value, DC 0 assumed
Warning: include: has no value, DC 0 assumed
Warning: include: has no value, DC 0 assumed
Warning: include: has no value, DC 0 assumed
Warning: include: has no value, DC 0 assumed
Warning: include: has no value, DC 0 assumed
Warning: include: has no value, DC 0 assumed
Warning: include: has no value, DC 0 assumed
Warning: include: has no value, DC 0 assumed
Warning: include: has no value, DC 0 assumed
Warning: include: has no value, DC 0 assumed
Warning: include: has no value, DC 0 assumed
Warning: include: has no value, DC 0 assumed
Warning: include: has no value, DC 0 assumed
Warning: include: has no value, DC 0 assumed
Warning: include: has no value, DC 0 assumed
Warning: include: has no value, DC 0 assumed
Warning: include: has no value, DC 0 assumed
Warning: include: has no value, DC 0 assumed
Warning: include: has no value, DC 0 assumed
Warning: include: has no value, DC 0 assumed
Warning: include: has no value, DC 0 assumed
Warning: include: has no value, DC 0 assumed
Warning: include: has no value, DC 0 assumed
Warning: include: has no value, DC 0 assumed
Warning: include: has no value, DC 0 assumed
Warning: include: has no value, DC 0 assumed
Warning: include: has no value, DC 0 assumed
Warning: include: has no value, DC 0 assumed
Warning: include: has no value, DC 0 assumed
Warning: include: has no value, DC 0 assumed
Warning: include: has no value, DC 0 assumed
Warning: include: has no value, DC 0 assumed
Warning: include: has no value, DC 0 assumed
Warning: include: has no value, DC 0 assumed
Warning: include: has no value, DC 0 assumed
Warning: include: has no value, DC 0 assumed
Warning: include: has no value, DC 0 assumed
Warning: include: has no value, DC 0 assumed
Warning: include: has no value, DC 0 assumed
Warning: include: has no value, DC 0 assumed
Warning: include: has no value, DC 0 assumed
Warning: include: has no value, DC 0 assumed
Warning: include: has no value, DC 0 assumed
Warning: include: has no value, DC 0 assumed
Warning: include: has no value, DC 0 assumed
Warning: include: has no value, DC 0 assumed
Warning: include: has no value, DC 0 assumed
Warning: include: has no value, DC 0 assumed
Warning: include: has no value, DC 0 assumed
Warning: include: has no value, DC 0 assumed
Warning: include: has no value, DC 0 assumed
Warning: include: has no value, DC 0 assumed
Warning: include: has no value, DC 0 assumed
Warning: include: has no value, DC 0 assumed
Warning: include: has no value, DC 0 assumed
Warning: include: has no value, DC 0 assumed
Warning: include: has no value, DC 0 assumed
Warning: include: has no value, DC 0 assumed
Warning: include: has no value, DC 0 assumed
Warning: include: has no value, DC 0 assumed
Warning: include: has no value, DC 0 assumed
Warning: include: has no value, DC 0 assumed
Warning: include: has no value, DC 0 assumed
Warning: include: has no value, DC 0 assumed
Warning: include: has no value, DC 0 assumed
Warning: include: has no value, DC 0 assumed
Warning: include: has no value, DC 0 assumed
Warning: include: has no value, DC 0 assumed
Warning: include: has no value, DC 0 assumed
Warning: include: has no value, DC 0 assumed
Warning: include: has no value, DC 0 assumed
Warning: include: has no value, DC 0 assumed
Warning: include: has no value, DC 0 assumed
Warning: include: has no value, DC 0 assumed
Warning: include: has no value, DC 0 assumed
Warning: include: has no value, DC 0 assumed
Warning: include: has no value, DC 0 assumed
Warning: include: has no value, DC 0 assumed
Warning: include: has no value, DC 0 assumed
Warning: include: has no value, DC 0 assumed
Warning: include: has no value, DC 0 assumed
Warning: include: has no value, DC 0 assumed
Warning: include: has no value, DC 0 assumed
Warning: include: has no value, DC 0 assumed
Warning: include: has no value, DC 0 assumed
Warning: include: has no value, DC 0 assumed
Warning: include: has no value, DC 0 assumed
Warning: include: has no value, DC 0 assumed
Warning: include: has no value, DC 0 assumed
Warning: include: has no value, DC 0 assumed
Warning: include: has no value, DC 0 assumed
Warning: include: has no value, DC 0 assumed
Warning: include: has no value, DC 0 assumed
Warning: include: has no value, DC 0 assumed
Warning: include: has no value, DC 0 assumed
Warning: include: has no value, DC 0 assumed
Warning: include: has no value, DC 0 assumed
Warning: include: has no value, DC 0 assumed
Warning: include: has no value, DC 0 assumed
Warning: include: has no value, DC 0 assumed
Warning: include: has no value, DC 0 assumed
Warning: include: has no value, DC 0 assumed
Warning: include: has no value, DC 0 assumed
Warning: include: has no value, DC 0 assumed
Warning: include: has no value, DC 0 assumed
Warning: include: has no value, DC 0 assumed
Warning: include: has no value, DC 0 assumed
Warning: include: has no value, DC 0 assumed
Warning: include: has no value, DC 0 assumed
Warning: include: has no value, DC 0 assumed
Warning: include: has no value, DC 0 assumed
Warning: include: has no value, DC 0 assumed
Warning: include: has no value, DC 0 assumed
Warning: include: has no value, DC 0 assumed
Warning: include: has no value, DC 0 assumed
Warning: include: has no value, DC 0 assumed
Warning: include: has no value, DC 0 assumed
Warning: include: has no value, DC 0 assumed
Warning: include: has no value, DC 0 assumed
Warning: include: has no value, DC 0 assumed
Warning: include: has no value, DC 0 assumed
Warning: include: has no value, DC 0 assumed
Warning: include: has no value, DC 0 assumed
Warning: include: has no value, DC 0 assumed
Warning: include: has no value, DC 0 assumed
Warning: include: has no value, DC 0 assumed
Warning: include: has no value, DC 0 assumed
Warning: include: has no value, DC 0 assumed
Warning: include: has no value, DC 0 assumed
Warning: include: has no value, DC 0 assumed
Warning: include: has no value, DC 0 assumed
Warning: include: has no value, DC 0 assumed
Warning: include: has no value, DC 0 assumed
Warning: include: has no value, DC 0 assumed
Warning: include: has no value, DC 0 assumed
Warning: include: has no value, DC 0 assumed
Warning: include: has no value, DC 0 assumed
Warning: include: has no value, DC 0 assumed
Warning: include: has no value, DC 0 assumed
Warning: include: has no value, DC 0 assumed
Warning: include: has no value, DC 0 assumed
Warning: include: has no value, DC 0 assumed
Warning: include: has no value, DC 0 assumed
Warning: include: has no value, DC 0 assumed
Warning: include: has no value, DC 0 assumed
Warning: include: has no value, DC 0 assumed
Warning: include: has no value, DC 0 assumed
Warning: include: has no value, DC 0 assumed
Warning: include: has no value, DC 0 assumed
Warning: include: has no value, DC 0 assumed
Warning: include: has no value, DC 0 assumed
Warning: include: has no value, DC 0 assumed
Warning: include: has no value, DC 0 assumed
Warning: include: has no value, DC 0 assumed
Warning: include: has no value, DC 0 assumed
Warning: include: has no value, DC 0 assumed
Warning: include: has no value, DC 0 assumed
Warning: include: has no value, DC 0 assumed
Warning: include: has no value, DC 0 assumed
Warning: include: has no value, DC 0 assumed
Warning: include: has no value, DC 0 assumed
Warning: include: has no value, DC 0 assumed
Warning: include: has no value, DC 0 assumed
Warning: include: has no value, DC 0 assumed
Warning: include: has no value, DC 0 assumed
Warning: include: has no value, DC 0 assumed
Warning: include: has no value, DC 0 assumed
Warning: include: has no value, DC 0 assumed
Warning: include: has no value, DC 0 assumed
Warning: include: has no value, DC 0 assumed
Warning: include: has no value, DC 0 assumed
Warning: include: has no value, DC 0 assumed
Warning: include: has no value, DC 0 assumed
Warning: include: has no value, DC 0 assumed
Warning: include: has no value, DC 0 assumed
Warning: include: has no value, DC 0 assumed
Warning: include: has no value, DC 0 assumed
Warning: include: has no value, DC 0 assumed
Warning: include: has no value, DC 0 assumed
Warning: include: has no value, DC 0 assumed
Warning: include: has no value, DC 0 assumed
Warning: include: has no value, DC 0 assumed
Warning: include: has no value, DC 0 assumed
Warning: include: has no value, DC 0 assumed
Warning: include: has no value, DC 0 assumed
Warning: include: has no value, DC 0 assumed
Warning: include: has no value, DC 0 assumed
Warning: include: has no value, DC 0 assumed
Warning: include: has no value, DC 0 assumed
Warning: include: has no value, DC 0 assumed
Warning: include: has no value, DC 0 assumed
Warning: include: has no value, DC 0 assumed
Warning: include: has no value, DC 0 assumed
Warning: include: has no value, DC 0 assumed
Warning: include: has no value, DC 0 assumed
Warning: include: has no value, DC 0 assumed
Warning: include: has no value, DC 0 assumed
Warning: include: has no value, DC 0 assumed
Warning: include: has no value, DC 0 assumed
Warning: include: has no value, DC 0 assumed
Warning: include: has no value, DC 0 assumed
Warning: include: has no value, DC 0 assumed
Warning: include: has no value, DC 0 assumed
Warning: include: has no value, DC 0 assumed
Warning: include: has no value, DC 0 assumed
Warning: include: has no value, DC 0 assumed
Warning: include: has no value, DC 0 assumed
Warning: include: has no value, DC 0 assumed
Warning: include: has no value, DC 0 assumed
Warning: include: has no value, DC 0 assumed
Warning: include: has no value, DC 0 assumed
Warning: include: has no value, DC 0 assumed
Warning: include: has no value, DC 0 assumed
Warning: include: has no value, DC 0 assumed
Warning: include: has no value, DC 0 assumed
Warning: include: has no value, DC 0 assumed
Warning: include: has no value, DC 0 assumed
Warning: include: has no value, DC 0 assumed
Warning: include: has no value, DC 0 assumed
Warning: include: has no value, DC 0 assumed
Warning: include: has no value, DC 0 assumed
Warning: include: has no value, DC 0 assumed
Warning: include: has no value, DC 0 assumed
Warning: include: has no value, DC 0 assumed
Warning: include: has no value, DC 0 assumed
Warning: include: has no value, DC 0 assumed
Warning: include: has no value, DC 0 assumed
Warning: include: has no value, DC 0 assumed
Warning: include: has no value, DC 0 assumed
Warning: include: has no value, DC 0 assumed
Warning: include: has no value, DC 0 assumed
Warning: include: has no value, DC 0 assumed
Warning: include: has no value, DC 0 assumed
Warning: include: has no value, DC 0 assumed
Warning: include: has no value, DC 0 assumed
Warning: include: has no value, DC 0 assumed
Warning: include: has no value, DC 0 assumed
Warning: include: has no value, DC 0 assumed
Warning: include: has no value, DC 0 assumed
Warning: include: has no value, DC 0 assumed
Warning: include: has no value, DC 0 assumed
Warning: include: has no value, DC 0 assumed
Warning: include: has no value, DC 0 assumed
Warning: include: has no value, DC 0 assumed
Warning: include: has no value, DC 0 assumed
Warning: include: has no value, DC 0 assumed
Warning: include: has no value, DC 0 assumed
Warning: include: has no value, DC 0 assumed
Warning: include: has no value, DC 0 assumed
Warning: include: has no value, DC 0 assumed
Warning: include: has no value, DC 0 assumed
Warning: include: has no value, DC 0 assumed
Warning: include: has no value, DC 0 assumed
Warning: include: has no value, DC 0 assumed
Warning: include: has no value, DC 0 assumed
Warning: include: has no value, DC 0 assumed
Warning: include: has no value, DC 0 assumed
Warning: include: has no value, DC 0 assumed
Warning: include: has no value, DC 0 assumed
Warning: include: has no value, DC 0 assumed
Warning: include: has no value, DC 0 assumed
Warning: include: has no value, DC 0 assumed
Warning: include: has no value, DC 0 assumed
Warning: include: has no value, DC 0 assumed
Warning: include: has no value, DC 0 assumed
Warning: include: has no value, DC 0 assumed
Warning: include: has no value, DC 0 assumed
Warning: include: has no value, DC 0 assumed
Warning: include: has no value, DC 0 assumed
Warning: include: has no value, DC 0 assumed
Warning: include: has no value, DC 0 assumed
Warning: include: has no value, DC 0 assumed
Warning: include: has no value, DC 0 assumed
Warning: include: has no value, DC 0 assumed
Warning: include: has no value, DC 0 assumed
Warning: include: has no value, DC 0 assumed
Warning: include: has no value, DC 0 assumed
Warning: include: has no value, DC 0 assumed
Warning: include: has no value, DC 0 assumed
Warning: include: has no value, DC 0 assumed
Warning: include: has no value, DC 0 assumed
Warning: include: has no value, DC 0 assumed
Warning: include: has no value, DC 0 assumed
Warning: include: has no value, DC 0 assumed
Warning: include: has no value, DC 0 assumed
Warning: include: has no value, DC 0 assumed
Warning: include: has no value, DC 0 assumed
Warning: include: has no value, DC 0 assumed
Warning: include: has no value, DC 0 assumed
Warning: include: has no value, DC 0 assumed
Warning: include: has no value, DC 0 assumed
Warning: include: has no value, DC 0 assumed
Warning: include: has no value, DC 0 assumed
Warning: include: has no value, DC 0 assumed
Warning: include: has no value, DC 0 assumed
Warning: include: has no value, DC 0 assumed
Warning: include: has no value, DC 0 assumed
Warning: include: has no value, DC 0 assumed
Warning: include: has no value, DC 0 assumed
Warning: include: has no value, DC 0 assumed
Warning: include: has no value, DC 0 assumed
Warning: include: has no value, DC 0 assumed
Warning: include: has no value, DC 0 assumed
Warning: include: has no value, DC 0 assumed
Warning: include: has no value, DC 0 assumed
Warning: include: has no value, DC 0 assumed
Warning: include: has no value, DC 0 assumed
Warning: include: has no value, DC 0 assumed
Warning: include: has no value, DC 0 assumed
Warning: include: has no value, DC 0 assumed
Warning: include: has no value, DC 0 assumed
Warning: include: has no value, DC 0 assumed
Warning: include: has no value, DC 0 assumed
Warning: include: has no value, DC 0 assumed
Warning: include: has no value, DC 0 assumed
Warning: include: has no value, DC 0 assumed
Warning: include: has no value, DC 0 assumed
Warning: include: has no value, DC 0 assumed
Warning: include: has no value, DC 0 assumed
Warning: include: has no value, DC 0 assumed
Warning: include: has no value, DC 0 assumed
Warning: include: has no value, DC 0 assumed
Warning: include: has no value, DC 0 assumed
Warning: include: has no value, DC 0 assumed
Warning: include: has no value, DC 0 assumed
Warning: include: has no value, DC 0 assumed
Warning: include: has no value, DC 0 assumed
Warning: include: has no value, DC 0 assumed
Warning: include: has no value, DC 0 assumed
Warning: include: has no value, DC 0 assumed
Warning: include: has no value, DC 0 assumed
Warning: include: has no value, DC 0 assumed
Warning: include: has no value, DC 0 assumed
Warning: include: has no value, DC 0 assumed
Warning: include: has no value, DC 0 assumed
Warning: include: has no value, DC 0 assumed
Warning: include: has no value, DC 0 assumed
Warning: include: has no value, DC 0 assumed
Warning: include: has no value, DC 0 assumed
Warning: include: has no value, DC 0 assumed
Warning: include: has no value, DC 0 assumed
Warning: include: has no value, DC 0 assumed
Warning: include: has no value, DC 0 assumed
Warning: include: has no value, DC 0 assumed
Warning: include: has no value, DC 0 assumed
Warning: include: has no value, DC 0 assumed
Warning: include: has no value, DC 0 assumed
Warning: include: has no value, DC 0 assumed
Warning: include: has no value, DC 0 assumed
Warning: include: has no value, DC 0 assumed
Warning: include: has no value, DC 0 assumed
Warning: include: has no value, DC 0 assumed
Warning: include: has no value, DC 0 assumed
Warning: include: has no value, DC 0 assumed
Warning: include: has no value, DC 0 assumed
Warning: include: has no value, DC 0 assumed
Warning: include: has no value, DC 0 assumed
Warning: include: has no value, DC 0 assumed
Warning: include: has no value, DC 0 assumed
Warning: include: has no value, DC 0 assumed
Warning: include: has no value, DC 0 assumed
Warning: include: has no value, DC 0 assumed
Warning: include: has no value, DC 0 assumed
Warning: include: has no value, DC 0 assumed
Warning: include: has no value, DC 0 assumed
Warning: include: has no value, DC 0 assumed
Warning: include: has no value, DC 0 assumed
Warning: include: has no value, DC 0 assumed
Warning: include: has no value, DC 0 assumed
Warning: include: has no value, DC 0 assumed
Warning: include: has no value, DC 0 assumed
Warning: include: has no value, DC 0 assumed
Warning: include: has no value, DC 0 assumed
Warning: include: has no value, DC 0 assumed
Warning: include: has no value, DC 0 assumed
Warning: include: has no value, DC 0 assumed
Warning: include: has no value, DC 0 assumed
Warning: include: has no value, DC 0 assumed
Warning: include: has no value, DC 0 assumed
Warning: include: has no value, DC 0 assumed
Warning: include: has no value, DC 0 assumed
Warning: include: has no value, DC 0 assumed
Warning: include: has no value, DC 0 assumed
Warning: include: has no value, DC 0 assumed
Warning: include: has no value, DC 0 assumed
Warning: include: has no value, DC 0 assumed
Warning: include: has no value, DC 0 assumed
Warning: include: has no value, DC 0 assumed
Warning: include: has no value, DC 0 assumed
Warning: include: has no value, DC 0 assumed
Warning: include: has no value, DC 0 assumed
Warning: include: has no value, DC 0 assumed
Warning: include: has no value, DC 0 assumed
Warning: include: has no value, DC 0 assumed
Warning: include: has no value, DC 0 assumed
Warning: include: has no value, DC 0 assumed
Warning: include: has no value, DC 0 assumed
Warning: include: has no value, DC 0 assumed
Warning: include: has no value, DC 0 assumed
Warning: include: has no value, DC 0 assumed
Warning: include: has no value, DC 0 assumed
Warning: include: has no value, DC 0 assumed
Warning: include: has no value, DC 0 assumed
Warning: include: has no value, DC 0 assumed
Warning: include: has no value, DC 0 assumed
Warning: include: has no value, DC 0 assumed
Warning: include: has no value, DC 0 assumed
Warning: include: has no value, DC 0 assumed
Warning: include: has no value, DC 0 assumed
Warning: include: has no value, DC 0 assumed
Warning: include: has no value, DC 0 assumed
Warning: include: has no value, DC 0 assumed
Warning: include: has no value, DC 0 assumed
Warning: include: has no value, DC 0 assumed
Warning: include: has no value, DC 0 assumed
Warning: include: has no value, DC 0 assumed
Warning: include: has no value, DC 0 assumed
Warning: include: has no value, DC 0 assumed
Warning: include: has no value, DC 0 assumed
Warning: include: has no value, DC 0 assumed
Warning: include: has no value, DC 0 assumed
Warning: include: has no value, DC 0 assumed
Warning: include: has no value, DC 0 assumed
Warning: include: has no value, DC 0 assumed
Warning: include: has no value, DC 0 assumed
Warning: include: has no value, DC 0 assumed
Warning: include: has no value, DC 0 assumed
Warning: include: has no value, DC 0 assumed
Warning: include: has no value, DC 0 assumed
Warning: include: has no value, DC 0 assumed
Warning: include: has no value, DC 0 assumed
Warning: include: has no value, DC 0 assumed
Warning: include: has no value, DC 0 assumed
Warning: include: has no value, DC 0 assumed
Warning: include: has no value, DC 0 assumed
Warning: include: has no value, DC 0 assumed
Warning: include: has no value, DC 0 assumed
Warning: include: has no value, DC 0 assumed
Warning: include: has no value, DC 0 assumed
Warning: include: has no value, DC 0 assumed
Warning: include: has no value, DC 0 assumed
Warning: include: has no value, DC 0 assumed
Warning: include: has no value, DC 0 assumed
Warning: include: has no value, DC 0 assumed
Warning: include: has no value, DC 0 assumed
Warning: include: has no value, DC 0 assumed
Warning: include: has no value, DC 0 assumed
Warning: include: has no value, DC 0 assumed
Warning: include: has no value, DC 0 assumed
Warning: include: has no value, DC 0 assumed
Warning: include: has no value, DC 0 assumed
Warning: include: has no value, DC 0 assumed
Warning: include: has no value, DC 0 assumed
Warning: include: has no value, DC 0 assumed
Warning: include: has no value, DC 0 assumed
Warning: include: has no value, DC 0 assumed
Warning: include: has no value, DC 0 assumed
Warning: include: has no value, DC 0 assumed
Warning: include: has no value, DC 0 assumed
Warning: include: has no value, DC 0 assumed
Warning: include: has no value, DC 0 assumed
Warning: include: has no value, DC 0 assumed
Warning: include: has no value, DC 0 assumed
Warning: include: has no value, DC 0 assumed
Warning: include: has no value, DC 0 assumed
Warning: include: has no value, DC 0 assumed
Warning: include: has no value, DC 0 assumed
Warning: include: has no value, DC 0 assumed
Warning: include: has no value, DC 0 assumed
Warning: include: has no value, DC 0 assumed
Warning: include: has no value, DC 0 assumed
Warning: include: has no value, DC 0 assumed
Warning: include: has no value, DC 0 assumed
Warning: include: has no value, DC 0 assumed
Warning: include: has no value, DC 0 assumed
Warning: include: has no value, DC 0 assumed
Warning: include: has no value, DC 0 assumed
Warning: include: has no value, DC 0 assumed
Warning: include: has no value, DC 0 assumed
Warning: include: has no value, DC 0 assumed
Warning: include: has no value, DC 0 assumed
Warning: include: has no value, DC 0 assumed
Warning: include: has no value, DC 0 assumed
Warning: include: has no value, DC 0 assumed
Warning: include: has no value, DC 0 assumed
Warning: include: has no value, DC 0 assumed
Warning: include: has no value, DC 0 assumed
Warning: include: has no value, DC 0 assumed
Warning: include: has no value, DC 0 assumed
Warning: include: has no value, DC 0 assumed
Warning: include: has no value, DC 0 assumed
Warning: include: has no value, DC 0 assumed
Warning: include: has no value, DC 0 assumed
Warning: include: has no value, DC 0 assumed
Warning: include: has no value, DC 0 assumed
Warning: include: has no value, DC 0 assumed
Warning: include: has no value, DC 0 assumed
Warning: include: has no value, DC 0 assumed
Warning: include: has no value, DC 0 assumed
Warning: include: has no value, DC 0 assumed
Warning: include: has no value, DC 0 assumed
Warning: include: has no value, DC 0 assumed
Warning: include: has no value, DC 0 assumed
Warning: include: has no value, DC 0 assumed
Warning: include: has no value, DC 0 assumed
Warning: include: has no value, DC 0 assumed
Warning: include: has no value, DC 0 assumed
Warning: include: has no value, DC 0 assumed
Warning: include: has no value, DC 0 assumed
Warning: include: has no value, DC 0 assumed
Warning: include: has no value, DC 0 assumed
Warning: include: has no value, DC 0 assumed
Warning: include: has no value, DC 0 assumed
Warning: include: has no value, DC 0 assumed
Warning: include: has no value, DC 0 assumed
Warning: include: has no value, DC 0 assumed
Warning: include: has no value, DC 0 assumed
Warning: include: has no value, DC 0 assumed
Warning: include: has no value, DC 0 assumed
Warning: include: has no value, DC 0 assumed
Warning: include: has no value, DC 0 assumed
Warning: include: has no value, DC 0 assumed
Warning: include: has no value, DC 0 assumed
Warning: include: has no value, DC 0 assumed
Warning: include: has no value, DC 0 assumed
Warning: include: has no value, DC 0 assumed
Warning: include: has no value, DC 0 assumed
Warning: include: has no value, DC 0 assumed
Warning: include: has no value, DC 0 assumed
Warning: include: has no value, DC 0 assumed
Warning: include: has no value, DC 0 assumed
Warning: include: has no value, DC 0 assumed
Warning: include: has no value, DC 0 assumed
Warning: include: has no value, DC 0 assumed
Warning: include: has no value, DC 0 assumed
Warning: include: has no value, DC 0 assumed
Warning: include: has no value, DC 0 assumed
Warning: include: has no value, DC 0 assumed
Warning: include: has no value, DC 0 assumed
Warning: include: has no value, DC 0 assumed
Warning: include: has no value, DC 0 assumed
Warning: include: has no value, DC 0 assumed
Warning: include: has no value, DC 0 assumed
Warning: include: has no value, DC 0 assumed
Warning: include: has no value, DC 0 assumed
Warning: include: has no value, DC 0 assumed
Warning: include: has no value, DC 0 assumed
Warning: include: has no value, DC 0 assumed
Warning: include: has no value, DC 0 assumed
Warning: include: has no value, DC 0 assumed
Warning: include: has no value, DC 0 assumed
Warning: include: has no value, DC 0 assumed
Warning: include: has no value, DC 0 assumed
Warning: include: has no value, DC 0 assumed
Warning: include: has no value, DC 0 assumed
Warning: include: has no value, DC 0 assumed
Warning: include: has no value, DC 0 assumed
Warning: include: has no value, DC 0 assumed
Warning: include: has no value, DC 0 assumed
Warning: include: has no value, DC 0 assumed
Warning: include: has no value, DC 0 assumed
Warning: include: has no value, DC 0 assumed
Warning: include: has no value, DC 0 assumed
Warning: include: has no value, DC 0 assumed
Warning: include: has no value, DC 0 assumed
Warning: include: has no value, DC 0 assumed
Warning: include: has no value, DC 0 assumed
Warning: include: has no value, DC 0 assumed
Warning: include: has no value, DC 0 assumed
Warning: include: has no value, DC 0 assumed
Warning: include: has no value, DC 0 assumed
Warning: include: has no value, DC 0 assumed
Warning: include: has no value, DC 0 assumed
Warning: include: has no value, DC 0 assumed
Warning: include: has no value, DC 0 assumed
Warning: include: has no value, DC 0 assumed
Warning: include: has no value, DC 0 assumed
Warning: include: has no value, DC 0 assumed
Warning: include: has no value, DC 0 assumed
Warning: include: has no value, DC 0 assumed
Warning: include: has no value, DC 0 assumed
Warning: include: has no value, DC 0 assumed
Warning: include: has no value, DC 0 assumed
Warning: include: has no value, DC 0 assumed
Warning: include: has no value, DC 0 assumed
Warning: include: has no value, DC 0 assumed
Warning: include: has no value, DC 0 assumed
Warning: include: has no value, DC 0 assumed
Warning: include: has no value, DC 0 assumed
Warning: include: has no value, DC 0 assumed
Warning: include: has no value, DC 0 assumed
Warning: include: has no value, DC 0 assumed
Warning: include: has no value, DC 0 assumed
Warning: include: has no value, DC 0 assumed
Warning: include: has no value, DC 0 assumed
Warning: include: has no value, DC 0 assumed
Warning: include: has no value, DC 0 assumed
Warning: include: has no value, DC 0 assumed
Warning: include: has no value, DC 0 assumed
Warning: include: has no value, DC 0 assumed
Warning: include: has no value, DC 0 assumed
Warning: include: has no value, DC 0 assumed
Warning: include: has no value, DC 0 assumed
Warning: include: has no value, DC 0 assumed
Warning: include: has no value, DC 0 assumed
Warning: include: has no value, DC 0 assumed
Warning: include: has no value, DC 0 assumed
Warning: include: has no value, DC 0 assumed
Warning: include: has no value, DC 0 assumed
Warning: include: has no value, DC 0 assumed
Warning: include: has no value, DC 0 assumed
Warning: include: has no value, DC 0 assumed
Warning: include: has no value, DC 0 assumed
Warning: include: has no value, DC 0 assumed
Warning: include: has no value, DC 0 assumed
Warning: include: has no value, DC 0 assumed
Warning: include: has no value, DC 0 assumed
Warning: include: has no value, DC 0 assumed
Warning: include: has no value, DC 0 assumed
Warning: include: has no value, DC 0 assumed
Warning: include: has no value, DC 0 assumed
Warning: include: has no value, DC 0 assumed
Warning: include: has no value, DC 0 assumed
Warning: include: has no value, DC 0 assumed
Warning: include: has no value, DC 0 assumed
Warning: include: has no value, DC 0 assumed
Warning: include: has no value, DC 0 assumed
Warning: include: has no value, DC 0 assumed
Warning: include: has no value, DC 0 assumed
Warning: include: has no value, DC 0 assumed
Warning: include: has no value, DC 0 assumed
Warning: include: has no value, DC 0 assumed
Warning: include: has no value, DC 0 assumed
Warning: include: has no value, DC 0 assumed
Warning: include: has no value, DC 0 assumed
Warning: include: has no value, DC 0 assumed
Warning: include: has no value, DC 0 assumed
Warning: include: has no value, DC 0 assumed
Warning: include: has no value, DC 0 assumed
Warning: include: has no value, DC 0 assumed
Warning: include: has no value, DC 0 assumed
Warning: include: has no value, DC 0 assumed
Warning: include: has no value, DC 0 assumed
Warning: include: has no value, DC 0 assumed
Warning: include: has no value, DC 0 assumed
Warning: include: has no value, DC 0 assumed
Warning: include: has no value, DC 0 assumed
Warning: include: has no value, DC 0 assumed
Warning: include: has no value, DC 0 assumed
Warning: include: has no value, DC 0 assumed
Warning: include: has no value, DC 0 assumed
Warning: include: has no value, DC 0 assumed
Warning: include: has no value, DC 0 assumed
Warning: include: has no value, DC 0 assumed
Warning: include: has no value, DC 0 assumed
Warning: include: has no value, DC 0 assumed
Warning: include: has no value, DC 0 assumed
Warning: include: has no value, DC 0 assumed
Warning: include: has no value, DC 0 assumed
Warning: include: has no value, DC 0 assumed
Warning: include: has no value, DC 0 assumed
Warning: include: has no value, DC 0 assumed
Warning: include: has no value, DC 0 assumed
Warning: include: has no value, DC 0 assumed
Warning: include: has no value, DC 0 assumed
Warning: include: has no value, DC 0 assumed
Warning: include: has no value, DC 0 assumed
Warning: include: has no value, DC 0 assumed
Warning: include: has no value, DC 0 assumed
Warning: include: has no value, DC 0 assumed
Warning: include: has no value, DC 0 assumed
Warning: include: has no value, DC 0 assumed
Warning: include: has no value, DC 0 assumed
Warning: include: has no value, DC 0 assumed
Warning: include: has no value, DC 0 assumed
Warning: include: has no value, DC 0 assumed
Warning: include: has no value, DC 0 assumed
Warning: include: has no value, DC 0 assumed
Warning: include: has no value, DC 0 assumed
Warning: include: has no value, DC 0 assumed
Warning: include: has no value, DC 0 assumed
Warning: include: has no value, DC 0 assumed
Warning: include: has no value, DC 0 assumed
Warning: include: has no value, DC 0 assumed
Warning: include: has no value, DC 0 assumed
Warning: include: has no value, DC 0 assumed
Warning: include: has no value, DC 0 assumed
Warning: include: has no value, DC 0 assumed
Warning: include: has no value, DC 0 assumed
Warning: include: has no value, DC 0 assumed
Warning: include: has no value, DC 0 assumed
Warning: include: has no value, DC 0 assumed
Warning: include: has no value, DC 0 assumed
Warning: include: has no value, DC 0 assumed
Warning: include: has no value, DC 0 assumed
Warning: include: has no value, DC 0 assumed
Warning: include: has no value, DC 0 assumed
Warning: include: has no value, DC 0 assumed
Warning: include: has no value, DC 0 assumed
Warning: include: has no value, DC 0 assumed
Warning: include: has no value, DC 0 assumed
Warning: include: has no value, DC 0 assumed
Warning: include: has no value, DC 0 assumed
Warning: include: has no value, DC 0 assumed
Warning: include: has no value, DC 0 assumed
Warning: include: has no value, DC 0 assumed
Warning: include: has no value, DC 0 assumed
Warning: include: has no value, DC 0 assumed
Warning: include: has no value, DC 0 assumed
Warning: include: has no value, DC 0 assumed
Warning: include: has no value, DC 0 assumed
Warning: include: has no value, DC 0 assumed
Warning: include: has no value, DC 0 assumed
Warning: include: has no value, DC 0 assumed
Warning: include: has no value, DC 0 assumed
Warning: include: has no value, DC 0 assumed
Warning: include: has no value, DC 0 assumed
Warning: include: has no value, DC 0 assumed
Warning: include: has no value, DC 0 assumed
Warning: include: has no value, DC 0 assumed
Warning: include: has no value, DC 0 assumed
Warning: include: has no value, DC 0 assumed
Warning: include: has no value, DC 0 assumed
Warning: include: has no value, DC 0 assumed
Warning: include: has no value, DC 0 assumed
Warning: include: has no value, DC 0 assumed
Warning: include: has no value, DC 0 assumed
Warning: include: has no value, DC 0 assumed
Warning: include: has no value, DC 0 assumed
Warning: include: has no value, DC 0 assumed
Warning: include: has no value, DC 0 assumed
Warning: include: has no value, DC 0 assumed
Warning: include: has no value, DC 0 assumed
Warning: include: has no value, DC 0 assumed
Warning: include: has no value, DC 0 assumed
Warning: include: has no value, DC 0 assumed
Warning: include: has no value, DC 0 assumed
Warning: include: has no value, DC 0 assumed
Warning: include: has no value, DC 0 assumed
Warning: include: has no value, DC 0 assumed
Warning: include: has no value, DC 0 assumed
Warning: include: has no value, DC 0 assumed
Warning: include: has no value, DC 0 assumed
Warning: include: has no value, DC 0 assumed
Warning: include: has no value, DC 0 assumed
Warning: include: has no value, DC 0 assumed
Warning: include: has no value, DC 0 assumed
Warning: include: has no value, DC 0 assumed
Warning: include: has no value, DC 0 assumed
Warning: include: has no value, DC 0 assumed
Warning: include: has no value, DC 0 assumed
Warning: include: has no value, DC 0 assumed
Warning: include: has no value, DC 0 assumed
Warning: include: has no value, DC 0 assumed
Warning: include: has no value, DC 0 assumed
Warning: include: has no value, DC 0 assumed
Warning: include: has no value, DC 0 assumed
Warning: include: has no value, DC 0 assumed
Warning: include: has no value, DC 0 assumed
Warning: include: has no value, DC 0 assumed
Warning: include: has no value, DC 0 assumed
Warning: include: has no value, DC 0 assumed
Warning: include: has no value, DC 0 assumed
Warning: include: has no value, DC 0 assumed
Warning: include: has no value, DC 0 assumed
Warning: include: has no value, DC 0 assumed
Warning: include: has no value, DC 0 assumed
Warning: include: has no value, DC 0 assumed
Warning: include: has no value, DC 0 assumed
Warning: include: has no value, DC 0 assumed
Warning: include: has no value, DC 0 assumed
Warning: include: has no value, DC 0 assumed
Warning: include: has no value, DC 0 assumed
Warning: include: has no value, DC 0 assumed
Warning: include: has no value, DC 0 assumed
Warning: include: has no value, DC 0 assumed
Warning: include: has no value, DC 0 assumed
Warning: include: has no value, DC 0 assumed
Warning: include: has no value, DC 0 assumed
Warning: include: has no value, DC 0 assumed
Warning: include: has no value, DC 0 assumed
Warning: include: has no value, DC 0 assumed
Warning: include: has no value, DC 0 assumed
Warning: include: has no value, DC 0 assumed
Warning: include: has no value, DC 0 assumed
Warning: include: has no value, DC 0 assumed
Warning: include: has no value, DC 0 assumed
Warning: include: has no value, DC 0 assumed
Warning: include: has no value, DC 0 assumed
Warning: include: has no value, DC 0 assumed
Warning: include: has no value, DC 0 assumed
Warning: include: has no value, DC 0 assumed
Warning: include: has no value, DC 0 assumed
Warning: include: has no value, DC 0 assumed
Warning: include: has no value, DC 0 assumed
Warning: include: has no value, DC 0 assumed
Warning: include: has no value, DC 0 assumed
Warning: include: has no value, DC 0 assumed
Warning: include: has no value, DC 0 assumed
Warning: include: has no value, DC 0 assumed
Warning: include: has no value, DC 0 assumed
Warning: include: has no value, DC 0 assumed
Warning: include: has no value, DC 0 assumed
Warning: include: has no value, DC 0 assumed
Warning: include: has no value, DC 0 assumed
Warning: include: has no value, DC 0 assumed
Warning: include: has no value, DC 0 assumed
Warning: include: has no value, DC 0 assumed
Warning: include: has no value, DC 0 assumed
Warning: include: has no value, DC 0 assumed
Warning: include: has no value, DC 0 assumed
Warning: include: has no value, DC 0 assumed
Warning: include: has no value, DC 0 assumed
Warning: include: has no value, DC 0 assumed
Warning: include: has no value, DC 0 assumed
Warning: include: has no value, DC 0 assumed
Warning: include: has no value, DC 0 assumed
Warning: include: has no value, DC 0 assumed
Warning: include: has no value, DC 0 assumed
Warning: include: has no value, DC 0 assumed
Warning: include: has no value, DC 0 assumed
Warning: include: has no value, DC 0 assumed
Warning: include: has no value, DC 0 assumed
Warning: include: has no value, DC 0 assumed
Warning: include: has no value, DC 0 assumed
Warning: include: has no value, DC 0 assumed
Warning: include: has no value, DC 0 assumed
Warning: include: has no value, DC 0 assumed
Warning: include: has no value, DC 0 assumed
Warning: include: has no value, DC 0 assumed
Warning: include: has no value, DC 0 assumed
Warning: include: has no value, DC 0 assumed
Warning: include: has no value, DC 0 assumed
Warning: include: has no value, DC 0 assumed
Warning: include: has no value, DC 0 assumed
Warning: include: has no value, DC 0 assumed
Warning: include: has no value, DC 0 assumed
Warning: include: has no value, DC 0 assumed
Warning: include: has no value, DC 0 assumed
Warning: include: has no value, DC 0 assumed
Warning: include: has no value, DC 0 assumed
Warning: include: has no value, DC 0 assumed
Warning: include: has no value, DC 0 assumed
Warning: include: has no value, DC 0 assumed
Warning: include: has no value, DC 0 assumed
Warning: include: has no value, DC 0 assumed
Warning: include: has no value, DC 0 assumed
Warning: include: has no value, DC 0 assumed
Warning: include: has no value, DC 0 assumed
Warning: include: has no value, DC 0 assumed
Warning: include: has no value, DC 0 assumed
Warning: include: has no value, DC 0 assumed
Warning: include: has no value, DC 0 assumed
Warning: include: has no value, DC 0 assumed
Warning: include: has no value, DC 0 assumed
Warning: include: has no value, DC 0 assumed
Warning: include: has no value, DC 0 assumed
Warning: include: has no value, DC 0 assumed
Warning: include: has no value, DC 0 assumed
Warning: include: has no value, DC 0 assumed
Warning: include: has no value, DC 0 assumed
Warning: include: has no value, DC 0 assumed
Warning: include: has no value, DC 0 assumed
Warning: include: has no value, DC 0 assumed
Warning: include: has no value, DC 0 assumed
Warning: include: has no value, DC 0 assumed
Warning: include: has no value, DC 0 assumed
Warning: include: has no value, DC 0 assumed
Warning: include: has no value, DC 0 assumed
Warning: include: has no value, DC 0 assumed
Warning: include: has no value, DC 0 assumed
Warning: include: has no value, DC 0 assumed
Warning: include: has no value, DC 0 assumed
Warning: include: has no value, DC 0 assumed
Warning: include: has no value, DC 0 assumed
Warning: include: has no value, DC 0 assumed
Warning: include: has no value, DC 0 assumed
Warning: include: has no value, DC 0 assumed
Warning: include: has no value, DC 0 assumed
Warning: include: has no value, DC 0 assumed
Warning: include: has no value, DC 0 assumed
Warning: include: has no value, DC 0 assumed
Warning: include: has no value, DC 0 assumed
Warning: include: has no value, DC 0 assumed
Warning: include: has no value, DC 0 assumed
Warning: include: has no value, DC 0 assumed
Warning: include: has no value, DC 0 assumed
Warning: include: has no value, DC 0 assumed
Warning: include: has no value, DC 0 assumed
Warning: include: has no value, DC 0 assumed
Warning: include: has no value, DC 0 assumed
Warning: include: has no value, DC 0 assumed
Warning: include: has no value, DC 0 assumed
Warning: include: has no value, DC 0 assumed
Warning: include: has no value, DC 0 assumed
Warning: include: has no value, DC 0 assumed
Warning: include: has no value, DC 0 assumed
Warning: include: has no value, DC 0 assumed
Warning: include: has no value, DC 0 assumed
Warning: include: has no value, DC 0 assumed
Warning: include: has no value, DC 0 assumed
Warning: include: has no value, DC 0 assumed
Warning: include: has no value, DC 0 assumed
Warning: include: has no value, DC 0 assumed
Warning: include: has no value, DC 0 assumed
Warning: include: has no value, DC 0 assumed
Warning: include: has no value, DC 0 assumed
Warning: include: has no value, DC 0 assumed
Warning: include: has no value, DC 0 assumed
Warning: include: has no value, DC 0 assumed
Warning: include: has no value, DC 0 assumed
Warning: include: has no value, DC 0 assumed
Warning: include: has no value, DC 0 assumed
Warning: include: has no value, DC 0 assumed
Warning: include: has no value, DC 0 assumed
Warning: include: has no value, DC 0 assumed
Warning: include: has no value, DC 0 assumed
Warning: include: has no value, DC 0 assumed
Warning: include: has no value, DC 0 assumed
Warning: include: has no value, DC 0 assumed
Warning: include: has no value, DC 0 assumed
Warning: include: has no value, DC 0 assumed
Warning: include: has no value, DC 0 assumed
Warning: include: has no value, DC 0 assumed
Warning: include: has no value, DC 0 assumed
Warning: include: has no value, DC 0 assumed
Warning: include: has no value, DC 0 assumed
Warning: include: has no value, DC 0 assumed
Warning: include: has no value, DC 0 assumed
Warning: include: has no value, DC 0 assumed
Warning: include: has no value, DC 0 assumed
Warning: include: has no value, DC 0 assumed
Warning: include: has no value, DC 0 assumed
Warning: include: has no value, DC 0 assumed
Warning: include: has no value, DC 0 assumed
Warning: include: has no value, DC 0 assumed
Warning: include: has no value, DC 0 assumed
Warning: include: has no value, DC 0 assumed
Warning: include: has no value, DC 0 assumed
Warning: include: has no value, DC 0 assumed
Warning: include: has no value, DC 0 assumed
Warning: include: has no value, DC 0 assumed
Warning: include: has no value, DC 0 assumed
Warning: include: has no value, DC 0 assumed
Warning: include: has no value, DC 0 assumed
Warning: include: has no value, DC 0 assumed
Warning: include: has no value, DC 0 assumed
Warning: include: has no value, DC 0 assumed
Warning: include: has no value, DC 0 assumed
Warning: include: has no value, DC 0 assumed
Warning: include: has no value, DC 0 assumed
Warning: include: has no value, DC 0 assumed
Warning: include: has no value, DC 0 assumed
Warning: include: has no value, DC 0 assumed
Warning: include: has no value, DC 0 assumed
Warning: include: has no value, DC 0 assumed
Warning: include: has no value, DC 0 assumed
Warning: include: has no value, DC 0 assumed
Warning: include: has no value, DC 0 assumed
Warning: include: has no value, DC 0 assumed
Warning: include: has no value, DC 0 assumed
Warning: include: has no value, DC 0 assumed
Warning: include: has no value, DC 0 assumed
Warning: include: has no value, DC 0 assumed
Warning: include: has no value, DC 0 assumed
Warning: include: has no value, DC 0 assumed
Warning: include: has no value, DC 0 assumed
Warning: include: has no value, DC 0 assumed
Warning: include: has no value, DC 0 assumed
Warning: include: has no value, DC 0 assumed
Warning: include: has no value, DC 0 assumed
Warning: include: has no value, DC 0 assumed
Warning: include: has no value, DC 0 assumed
Warning: include: has no value, DC 0 assumed
Warning: include: has no value, DC 0 assumed
Warning: include: has no value, DC 0 assumed
Warning: include: has no value, DC 0 assumed
Warning: include: has no value, DC 0 assumed
Warning: include: has no value, DC 0 assumed
Warning: include: has no value, DC 0 assumed
Warning: include: has no value, DC 0 assumed
Warning: include: has no value, DC 0 assumed
Warning: include: has no value, DC 0 assumed
Warning: include: has no value, DC 0 assumed
Warning: include: has no value, DC 0 assumed
Warning: include: has no value, DC 0 assumed
Warning: include: has no value, DC 0 assumed
Warning: include: has no value, DC 0 assumed
Warning: include: has no value, DC 0 assumed
Warning: include: has no value, DC 0 assumed
Warning: include: has no value, DC 0 assumed
Warning: include: has no value, DC 0 assumed
Warning: include: has no value, DC 0 assumed
Warning: include: has no value, DC 0 assumed
Warning: include: has no value, DC 0 assumed
Warning: include: has no value, DC 0 assumed
Warning: include: has no value, DC 0 assumed
Warning: include: has no value, DC 0 assumed
Warning: include: has no value, DC 0 assumed
Warning: include: has no value, DC 0 assumed
Warning: include: has no value, DC 0 assumed
Warning: include: has no value, DC 0 assumed
Warning: include: has no value, DC 0 assumed
Warning: include: has no value, DC 0 assumed
Warning: include: has no value, DC 0 assumed
Warning: include: has no value, DC 0 assumed
Warning: include: has no value, DC 0 assumed
Warning: include: has no value, DC 0 assumed
Warning: include: has no value, DC 0 assumed
Warning: include: has no value, DC 0 assumed
Warning: include: has no value, DC 0 assumed
Warning: include: has no value, DC 0 assumed
Warning: include: has no value, DC 0 assumed
Warning: include: has no value, DC 0 assumed
Warning: include: has no value, DC 0 assumed
Warning: include: has no value, DC 0 assumed
Warning: include: has no value, DC 0 assumed
Warning: include: has no value, DC 0 assumed
Warning: include: has no value, DC 0 assumed
Warning: include: has no value, DC 0 assumed
Warning: include: has no value, DC 0 assumed
Warning: include: has no value, DC 0 assumed
Warning: include: has no value, DC 0 assumed
Warning: include: has no value, DC 0 assumed
Warning: include: has no value, DC 0 assumed
Warning: include: has no value, DC 0 assumed
Warning: include: has no value, DC 0 assumed
Warning: include: has no value, DC 0 assumed
[...]
Warning: include: has no value, DC 0 assumed
Warning: include: has no value, DC 0 assumed
Warning: include: has no value, DC 0 assumed
Warning: include: has no value, DC 0 assumed
Warning: include: has no value, DC 0 assumed
Warning: include: has no value, DC 0 assumed
Warning: include: has no value, DC 0 assumed
Warning: include: has no value, DC 0 assumed
Warning: include: has no value, DC 0 assumed
Warning: include: has no value, DC 0 assumed
Warning: include: has no value, DC 0 assumed
Warning: include: has no value, DC 0 assumed
Warning: include: has no value, DC 0 assumed
Warning: include: has no value, DC 0 assumed
Warning: include: has no value, DC 0 assumed
Warning: include: has no value, DC 0 assumed
Warning: include: has no value, DC 0 assumed
Warning: include: has no value, DC 0 assumed
Warning: include: has no value, DC 0 assumed
Warning: include: has no value, DC 0 assumed
Warning: include: has no value, DC 0 assumed
Warning: include: has no value, DC 0 assumed
Warning: include: has no value, DC 0 assumed
Warning: include: has no value, DC 0 assumed
Warning: include: has no value, DC 0 assumed
Warning: include: has no value, DC 0 assumed
Warning: include: has no value, DC 0 assumed
Warning: include: has no value, DC 0 assumed
Warning: include: has no value, DC 0 assumed
Warning: include: has no value, DC 0 assumed
Warning: include: has no value, DC 0 assumed
Warning: include: has no value, DC 0 assumed
Warning: include: has no value, DC 0 assumed
Warning: include: has no value, DC 0 assumed
Warning: include: has no value, DC 0 assumed
Warning: include: has no value, DC 0 assumed
Warning: include: has no value, DC 0 assumed
Warning: include: has no value, DC 0 assumed
Warning: include: has no value, DC 0 assumed
Warning: include: has no value, DC 0 assumed
Warning: include: has no value, DC 0 assumed
Warning: include: has no value, DC 0 assumed
Warning: include: has no value, DC 0 assumed
Warning: include: has no value, DC 0 assumed
Warning: include: has no value, DC 0 assumed
Warning: include: has no value, DC 0 assumed
Warning: include: has no value, DC 0 assumed
Warning: include: has no value, DC 0 assumed
Warning: include: has no value, DC 0 assumed
Warning: include: has no value, DC 0 assumed
Warning: include: has no value, DC 0 assumed
Warning: include: has no value, DC 0 assumed
Warning: include: has no value, DC 0 assumed
Warning: include: has no value, DC 0 assumed
Warning: include: has no value, DC 0 assumed
Warning: include: has no value, DC 0 assumed
Warning: include: has no value, DC 0 assumed
Warning: include: has no value, DC 0 assumed
Warning: include: has no value, DC 0 assumed
Warning: include: has no value, DC 0 assumed
Warning: include: has no value, DC 0 assumed
Warning: include: has no value, DC 0 assumed
Warning: include: has no value, DC 0 assumed
Warning: include: has no value, DC 0 assumed
Warning: include: has no value, DC 0 assumed
Warning: include: has no value, DC 0 assumed
Warning: include: has no value, DC 0 assumed
Warning: include: has no value, DC 0 assumed
Warning: include: has no value, DC 0 assumed
Warning: include: has no value, DC 0 assumed
Warning: include: has no value, DC 0 assumed
Warning: include: has no value, DC 0 assumed
Warning: include: has no value, DC 0 assumed
Warning: include: has no value, DC 0 assumed
Warning: include: has no value, DC 0 assumed
Warning: include: has no value, DC 0 assumed
Warning: include: has no value, DC 0 assumed
Warning: include: has no value, DC 0 assumed
Warning: include: has no value, DC 0 assumed
Warning: include: has no value, DC 0 assumed
Warning: include: has no value, DC 0 assumed
Warning: include: has no value, DC 0 assumed
Warning: include: has no value, DC 0 assumed
Warning: include: has no value, DC 0 assumed
Warning: include: has no value, DC 0 assumed
Warning: include: has no value, DC 0 assumed
Warning: include: has no value, DC 0 assumed
Warning: include: has no value, DC 0 assumed
Warning: include: has no value, DC 0 assumed
Warning: include: has no value, DC 0 assumed
Warning: include: has no value, DC 0 assumed
Warning: include: has no value, DC 0 assumed
Warning: include: has no value, DC 0 assumed
Warning: include: has no value, DC 0 assumed
Warning: include: has no value, DC 0 assumed
Warning: include: has no value, DC 0 assumed
Warning: include: has no value, DC 0 assumed
Warning: include: has no value, DC 0 assumed
Warning: include: has no value, DC 0 assumed
Warning: include: has no value, DC 0 assumed
Warning: include: has no value, DC 0 assumed
Warning: include: has no value, DC 0 assumed
Warning: include: has no value, DC 0 assumed
Warning: include: has no value, DC 0 assumed
Warning: include: has no value, DC 0 assumed
Warning: include: has no value, DC 0 assumed
Warning: include: has no value, DC 0 assumed
Warning: include: has no value, DC 0 assumed
Warning: include: has no value, DC 0 assumed
Warning: include: has no value, DC 0 assumed
Warning: include: has no value, DC 0 assumed
Warning: include: has no value, DC 0 assumed
Warning: include: has no value, DC 0 assumed
Warning: include: has no value, DC 0 assumed
Warning: include: has no value, DC 0 assumed
Warning: include: has no value, DC 0 assumed
Warning: include: has no value, DC 0 assumed
Warning: include: has no value, DC 0 assumed
Warning: include: has no value, DC 0 assumed
Warning: include: has no value, DC 0 assumed
Warning: include: has no value, DC 0 assumed
Warning: include: has no value, DC 0 assumed
Warning: include: has no value, DC 0 assumed
Warning: include: has no value, DC 0 assumed
Warning: include: has no value, DC 0 assumed
Warning: include: has no value, DC 0 assumed
Warning: include: has no value, DC 0 assumed
Warning: include: has no value, DC 0 assumed
Warning: include: has no value, DC 0 assumed
Warning: include: has no value, DC 0 assumed
Warning: include: has no value, DC 0 assumed
Warning: include: has no value, DC 0 assumed
Warning: include: has no value, DC 0 assumed
Warning: include: has no value, DC 0 assumed
Warning: include: has no value, DC 0 assumed
Warning: include: has no value, DC 0 assumed
Warning: include: has no value, DC 0 assumed
Warning: include: has no value, DC 0 assumed
Warning: include: has no value, DC 0 assumed
Warning: include: has no value, DC 0 assumed
Warning: include: has no value, DC 0 assumed
Warning: include: has no value, DC 0 assumed
Warning: include: has no value, DC 0 assumed
Warning: include: has no value, DC 0 assumed
Warning: include: has no value, DC 0 assumed
Warning: include: has no value, DC 0 assumed
Warning: include: has no value, DC 0 assumed
Warning: include: has no value, DC 0 assumed
Warning: include: has no value, DC 0 assumed
Warning: include: has no value, DC 0 assumed
Warning: include: has no value, DC 0 assumed
Warning: include: has no value, DC 0 assumed
Warning: include: has no value, DC 0 assumed
Warning: include: has no value, DC 0 assumed
Warning: include: has no value, DC 0 assumed
Warning: include: has no value, DC 0 assumed
Warning: include: has no value, DC 0 assumed
Warning: include: has no value, DC 0 assumed
Warning: include: has no value, DC 0 assumed
Warning: include: has no value, DC 0 assumed
Warning: include: has no value, DC 0 assumed
Warning: include: has no value, DC 0 assumed
Warning: include: has no value, DC 0 assumed
Warning: include: has no value, DC 0 assumed
Warning: include: has no value, DC 0 assumed
Warning: include: has no value, DC 0 assumed
Warning: include: has no value, DC 0 assumed
Warning: include: has no value, DC 0 assumed
Warning: include: has no value, DC 0 assumed
Warning: include: has no value, DC 0 assumed
Warning: include: has no value, DC 0 assumed
Warning: include: has no value, DC 0 assumed
Warning: include: has no value, DC 0 assumed
Warning: include: has no value, DC 0 assumed
Warning: include: has no value, DC 0 assumed
Warning: include: has no value, DC 0 assumed
Warning: include: has no value, DC 0 assumed
Warning: include: has no value, DC 0 assumed
Warning: include: has no value, DC 0 assumed
Warning: include: has no value, DC 0 assumed
Warning: include: has no value, DC 0 assumed
Warning: include: has no value, DC 0 assumed
Warning: include: has no value, DC 0 assumed
Warning: include: has no value, DC 0 assumed
Warning: include: has no value, DC 0 assumed
Warning: include: has no value, DC 0 assumed
Warning: include: has no value, DC 0 assumed
Warning: include: has no value, DC 0 assumed
Warning: include: has no value, DC 0 assumed
Warning: include: has no value, DC 0 assumed
Warning: include: has no value, DC 0 assumed
Warning: include: has no value, DC 0 assumed
Warning: include: has no value, DC 0 assumed
Warning: include: has no value, DC 0 assumed
Warning: include: has no value, DC 0 assumed
Warning: include: has no value, DC 0 assumed
Warning: include: has no value, DC 0 assumed
Warning: include: has no value, DC 0 assumed
Warning: include: has no value, DC 0 assumed
Warning: include: has no value, DC 0 assumed
Warning: include: has no value, DC 0 assumed
Warning: include: has no value, DC 0 assumed
Warning: include: has no value, DC 0 assumed
Warning: include: has no value, DC 0 assumed
Warning: include: has no value, DC 0 assumed
Warning: include: has no value, DC 0 assumed
Warning: include: has no value, DC 0 assumed
Warning: include: has no value, DC 0 assumed
Warning: include: has no value, DC 0 assumed
Warning: include: has no value, DC 0 assumed
Warning: include: has no value, DC 0 assumed
Warning: include: has no value, DC 0 assumed
Warning: include: has no value, DC 0 assumed
Warning: include: has no value, DC 0 assumed
Warning: include: has no value, DC 0 assumed
Warning: include: has no value, DC 0 assumed
Warning: include: has no value, DC 0 assumed
Warning: include: has no value, DC 0 assumed
Warning: include: has no value, DC 0 assumed
Warning: include: has no value, DC 0 assumed
Warning: include: has no value, DC 0 assumed
Warning: include: has no value, DC 0 assumed
Warning: include: has no value, DC 0 assumed
Warning: include: has no value, DC 0 assumed
Warning: include: has no value, DC 0 assumed
Warning: include: has no value, DC 0 assumed
Warning: include: has no value, DC 0 assumed
Warning: include: has no value, DC 0 assumed
Warning: include: has no value, DC 0 assumed
Warning: include: has no value, DC 0 assumed
Warning: include: has no value, DC 0 assumed
Warning: include: has no value, DC 0 assumed
Warning: include: has no value, DC 0 assumed
Warning: include: has no value, DC 0 assumed
Warning: include: has no value, DC 0 assumed
Warning: include: has no value, DC 0 assumed
Warning: include: has no value, DC 0 assumed
Warning: include: has no value, DC 0 assumed
Warning: include: has no value, DC 0 assumed
Warning: include: has no value, DC 0 assumed
Warning: include: has no value, DC 0 assumed
Warning: include: has no value, DC 0 assumed
Warning: include: has no value, DC 0 assumed
Warning: include: has no value, DC 0 assumed
Warning: include: has no value, DC 0 assumed
Warning: include: has no value, DC 0 assumed
Warning: include: has no value, DC 0 assumed
Warning: include: has no value, DC 0 assumed
Warning: include: has no value, DC 0 assumed
Warning: include: has no value, DC 0 assumed
Warning: include: has no value, DC 0 assumed
Warning: include: has no value, DC 0 assumed
Warning: include: has no value, DC 0 assumed
Warning: include: has no value, DC 0 assumed
Warning: include: has no value, DC 0 assumed
Warning: include: has no value, DC 0 assumed
Warning: include: has no value, DC 0 assumed
Warning: include: has no value, DC 0 assumed
Warning: include: has no value, DC 0 assumed
Warning: include: has no value, DC 0 assumed
Warning: include: has no value, DC 0 assumed
Warning: include: has no value, DC 0 assumed
Warning: include: has no value, DC 0 assumed
Warning: include: has no value, DC 0 assumed
Warning: include: has no value, DC 0 assumed
Warning: include: has no value, DC 0 assumed
Warning: include: has no value, DC 0 assumed
Warning: include: has no value, DC 0 assumed
Warning: include: has no value, DC 0 assumed
Warning: include: has no value, DC 0 assumed
Warning: include: has no value, DC 0 assumed
Warning: include: has no value, DC 0 assumed
Warning: include: has no value, DC 0 assumed
Warning: include: has no value, DC 0 assumed
Warning: include: has no value, DC 0 assumed
Warning: include: has no value, DC 0 assumed
Warning: include: has no value, DC 0 assumed
Warning: include: has no value, DC 0 assumed
Warning: include: has no value, DC 0 assumed
Warning: include: has no value, DC 0 assumed
Warning: include: has no value, DC 0 assumed
Warning: include: has no value, DC 0 assumed
Warning: include: has no value, DC 0 assumed
Warning: include: has no value, DC 0 assumed
Warning: include: has no value, DC 0 assumed
Warning: include: has no value, DC 0 assumed
Warning: include: has no value, DC 0 assumed
Warning: include: has no value, DC 0 assumed
Warning: include: has no value, DC 0 assumed
Warning: include: has no value, DC 0 assumed
Warning: include: has no value, DC 0 assumed
Warning: include: has no value, DC 0 assumed
Warning: include: has no value, DC 0 assumed
Warning: include: has no value, DC 0 assumed
Warning: include: has no value, DC 0 assumed
Warning: include: has no value, DC 0 assumed
Warning: include: has no value, DC 0 assumed
Warning: include: has no value, DC 0 assumed
Warning: include: has no value, DC 0 assumed
Warning: include: has no value, DC 0 assumed
Warning: include: has no value, DC 0 assumed
Warning: include: has no value, DC 0 assumed
Warning: include: has no value, DC 0 assumed
Warning: include: has no value, DC 0 assumed
Warning: include: has no value, DC 0 assumed
Warning: include: has no value, DC 0 assumed
Warning: include: has no value, DC 0 assumed
Warning: include: has no value, DC 0 assumed
Warning: include: has no value, DC 0 assumed
Warning: include: has no value, DC 0 assumed
Warning: include: has no value, DC 0 assumed
Warning: include: has no value, DC 0 assumed
Warning: include: has no value, DC 0 assumed
Warning: include: has no value, DC 0 assumed
Warning: include: has no value, DC 0 assumed
Warning: include: has no value, DC 0 assumed
Warning: include: has no value, DC 0 assumed
Warning: include: has no value, DC 0 assumed
Warning: include: has no value, DC 0 assumed
Warning: include: has no value, DC 0 assumed
Warning: include: has no value, DC 0 assumed
Warning: include: has no value, DC 0 assumed
Warning: include: has no value, DC 0 assumed
Warning: include: has no value, DC 0 assumed
Warning: include: has no value, DC 0 assumed
Warning: include: has no value, DC 0 assumed
Warning: include: has no value, DC 0 assumed
Warning: include: has no value, DC 0 assumed
Warning: include: has no value, DC 0 assumed
Warning: include: has no value, DC 0 assumed
Warning: include: has no value, DC 0 assumed
Warning: include: has no value, DC 0 assumed
Warning: include: has no value, DC 0 assumed
Warning: include: has no value, DC 0 assumed
Warning: include: has no value, DC 0 assumed
Warning: include: has no value, DC 0 assumed
Warning: include: has no value, DC 0 assumed
Warning: include: has no value, DC 0 assumed
Warning: include: has no value, DC 0 assumed
Warning: include: has no value, DC 0 assumed
Warning: include: has no value, DC 0 assumed
Warning: include: has no value, DC 0 assumed
Warning: include: has no value, DC 0 assumed
Warning: include: has no value, DC 0 assumed
Warning: include: has no value, DC 0 assumed
Warning: include: has no value, DC 0 assumed
Warning: include: has no value, DC 0 assumed
Warning: include: has no value, DC 0 assumed
Warning: include: has no value, DC 0 assumed
Warning: include: has no value, DC 0 assumed
Warning: include: has no value, DC 0 assumed
Warning: include: has no value, DC 0 assumed
Warning: include: has no value, DC 0 assumed
Warning: include: has no value, DC 0 assumed
Warning: include: has no value, DC 0 assumed
Warning: include: has no value, DC 0 assumed
Warning: include: has no value, DC 0 assumed
Warning: include: has no value, DC 0 assumed
Warning: include: has no value, DC 0 assumed
Warning: include: has no value, DC 0 assumed
Warning: include: has no value, DC 0 assumed
Warning: include: has no value, DC 0 assumed
Warning: include: has no value, DC 0 assumed
Warning: include: has no value, DC 0 assumed
Warning: include: has no value, DC 0 assumed
Warning: include: has no value, DC 0 assumed
Warning: include: has no value, DC 0 assumed
Warning: include: has no value, DC 0 assumed
Warning: include: has no value, DC 0 assumed
Warning: include: has no value, DC 0 assumed
Warning: include: has no value, DC 0 assumed
Warning: include: has no value, DC 0 assumed
Warning: include: has no value, DC 0 assumed
Warning: include: has no value, DC 0 assumed
Warning: include: has no value, DC 0 assumed
Warning: include: has no value, DC 0 assumed
Warning: include: has no value, DC 0 assumed
Warning: include: has no value, DC 0 assumed
Warning: include: has no value, DC 0 assumed
Warning: include: has no value, DC 0 assumed
Warning: include: has no value, DC 0 assumed
Warning: include: has no value, DC 0 assumed
Warning: include: has no value, DC 0 assumed
Warning: include: has no value, DC 0 assumed
Warning: include: has no value, DC 0 assumed
Warning: include: has no value, DC 0 assumed
Warning: include: has no value, DC 0 assumed
Warning: include: has no value, DC 0 assumed
Warning: include: has no value, DC 0 assumed
Warning: include: has no value, DC 0 assumed
Warning: include: has no value, DC 0 assumed
Warning: include: has no value, DC 0 assumed
Warning: include: has no value, DC 0 assumed
Warning: include: has no value, DC 0 assumed
Warning: include: has no value, DC 0 assumed
Warning: include: has no value, DC 0 assumed
Warning: include: has no value, DC 0 assumed
Warning: include: has no value, DC 0 assumed
Warning: include: has no value, DC 0 assumed
Warning: include: has no value, DC 0 assumed
Warning: include: has no value, DC 0 assumed
Warning: include: has no value, DC 0 assumed
Warning: include: has no value, DC 0 assumed
Warning: include: has no value, DC 0 assumed
Warning: include: has no value, DC 0 assumed
Warning: include: has no value, DC 0 assumed
Warning: include: has no value, DC 0 assumed
Warning: include: has no value, DC 0 assumed
Warning: include: has no value, DC 0 assumed
Warning: include: has no value, DC 0 assumed
Warning: include: has no value, DC 0 assumed
Warning: include: has no value, DC 0 assumed
Warning: include: has no value, DC 0 assumed
Warning: include: has no value, DC 0 assumed
Warning: include: has no value, DC 0 assumed
Warning: include: has no value, DC 0 assumed
Warning: include: has no value, DC 0 assumed
Warning: include: has no value, DC 0 assumed
Warning: include: has no value, DC 0 assumed
Warning: include: has no value, DC 0 assumed
Warning: include: has no value, DC 0 assumed
Warning: include: has no value, DC 0 assumed
Warning: include: has no value, DC 0 assumed
Warning: include: has no value, DC 0 assumed
Warning: include: has no value, DC 0 assumed
Warning: include: has no value, DC 0 assumed
Warning: include: has no value, DC 0 assumed
Warning: include: has no value, DC 0 assumed
Warning: include: has no value, DC 0 assumed
Warning: include: has no value, DC 0 assumed
Warning: include: has no value, DC 0 assumed
Warning: include: has no value, DC 0 assumed
Warning: include: has no value, DC 0 assumed
Warning: include: has no value, DC 0 assumed
Warning: include: has no value, DC 0 assumed
Warning: include: has no value, DC 0 assumed
Warning: include: has no value, DC 0 assumed

No. of Data Rows : 9001
Vbg @ 27degC
vbg27c = 9.638673e-01
dVbe/degC & ppm @ 27degC
deriv(vbg)[indx27] = -4.10608e-05
deriv(vbg)[indx27]/vbg27c = -4.26001e-05
ppm real
(vbg[indx70]-vbg[indx0])/vbg[indx27]/(70-0)*1e6 = -4.45946e+01
binary raw file "./sims/tsmc_bandgap_real_tempsweep.raw"
ngspice-36 done
