
No compatibility mode selected!


Circuit: **.subckt tsmc_bandgap_real_tran

Doing analysis at TEMP = 27.000000 and TNOM = 27.000000


Initial Transient Solution
--------------------------

Node                                   Voltage
----                                   -------
vdd                                          0
veb                               -2.90519e-49
vb                                 4.59509e-25
net2                               4.59509e-25
net1                               4.59509e-25
net5                              -2.90519e-49
va                                -2.90519e-49
net4                               4.59509e-25
net6                              2.09906e-112
vbg                               2.09906e-112
net3                              -2.90519e-49
vbneg                               4.5951e-25
vgate                              1.43913e-17
vq                                -1.16659e-15
vx                                 1.92838e-18
vg                                 1.15688e-17
xr1.xsky130_fd_pr__res_xhigh_po_0p35.ra    -1.36198e-51
xr2.xsky130_fd_pr__res_xhigh_po_0p35.ra     2.15423e-27
xr3.xsky130_fd_pr__res_xhigh_po_0p35.ra      4.5951e-25
xr4.xsky130_fd_pr__res_xhigh_po_0p35.ra    1.23611e-114
porst                                        0
v2#branch                                    0
vq2#branch                         2.32669e-54
vr1#branch                        -2.31707e-54
vm3#branch                        2.10137e-117
vm2#branch                         3.66483e-30
vm1#branch                         9.61806e-57
vr2#branch                        -4.28931e-35
vr4#branch                         3.66487e-30
v1#branch                          5.88423e-26


No. of Data Rows : 200030
Doing analysis at TEMP = 0.000000 and TNOM = 27.000000


Initial Transient Solution
--------------------------

Node                                   Voltage
----                                   -------
vdd                                          0
veb                                  -0.248057
vb                                   -0.247282
net2                                 -0.247282
net1                                 -0.247282
net5                                 -0.248057
va                                   -0.248057
net4                                 -0.247282
net6                                 0.0289442
vbg                                  0.0289442
net3                                 -0.248057
vbneg                                -0.247281
vgate                                 0.900044
vq                                  -0.0660025
vx                                   -0.320049
vg                                    0.941684
xr1.xsky130_fd_pr__res_xhigh_po_0p35.ra     -0.00112082
xr2.xsky130_fd_pr__res_xhigh_po_0p35.ra     -0.00111728
xr3.xsky130_fd_pr__res_xhigh_po_0p35.ra       -0.247281
xr4.xsky130_fd_pr__res_xhigh_po_0p35.ra     0.000163461
porst                                        0
v2#branch                          -0.00237722
vq2#branch                          -2.481e-13
vr1#branch                        -1.90008e-06
vm3#branch                         2.78213e-07
vm2#branch                          0.00129567
vm1#branch                          0.00129909
vr2#branch                        -9.64533e-12
vr4#branch                        -1.89414e-06
v1#branch                          -0.00412617


No. of Data Rows : 200026
Doing analysis at TEMP = 70.000000 and TNOM = 27.000000


Initial Transient Solution
--------------------------

Node                                   Voltage
----                                   -------
vdd                                          0
veb                                  -0.243269
vb                                   -0.241795
net2                                 -0.241795
net1                                 -0.241795
net5                                 -0.243269
va                                   -0.243269
net4                                 -0.241795
net6                                 0.0307363
vbg                                  0.0307363
net3                                 -0.243269
vbneg                                -0.241795
vgate                                  1.02371
vq                                  -0.0248407
vx                                   -0.321942
vg                                     1.09876
xr1.xsky130_fd_pr__res_xhigh_po_0p35.ra     -0.00121492
xr2.xsky130_fd_pr__res_xhigh_po_0p35.ra     -0.00120749
xr3.xsky130_fd_pr__res_xhigh_po_0p35.ra       -0.241795
xr4.xsky130_fd_pr__res_xhigh_po_0p35.ra     0.000191873
porst                                        0
v2#branch                           -0.0864189
vq2#branch                         -2.6467e-13
vr1#branch                        -2.06002e-06
vm3#branch                         3.26575e-07
vm2#branch                           0.0470048
vm1#branch                           0.0472438
vr2#branch                        -1.02644e-11
vr4#branch                        -2.04754e-06
v1#branch                            -0.153012


No. of Data Rows : 200028
binary raw file "./sims/tsmc_bandgap_real_70degc_vbg.raw"
binary raw file "./sims/tsmc_bandgap_real_0degc_vbg.raw"
binary raw file "./sims/tsmc_bandgap_real_27degc_vbg.raw"
ngspice-36 done
