
No compatibility mode selected!


Circuit: **.subckt tsmc_bandgap_real_op

Warning : Nodeset on non-existent node - vgate, ignored
   Please check line .nodeset v(vgate)=1.4

Doing analysis at TEMP = 27.000000 and TNOM = 27.000000


No. of Data Rows : 1
Error: no such device or model name m.xm8.msky130_fd_pr__pfet_01v8_lvt
Error(parse.c--checkvalid): @m.xm8.msky130_fd_pr__pfet_01v8_lvt[id]: zero length vector.
Error: RHS "@m.xm8.msky130_fd_pr__pfet_01v8_lvt[id]" invalid
Error: no such device or model name m.xm1.msky130_fd_pr__pfet_01v8_lvt
Error(parse.c--checkvalid): @m.xm1.msky130_fd_pr__pfet_01v8_lvt[id]: zero length vector.
Error: RHS "@m.xm1.msky130_fd_pr__pfet_01v8_lvt[id]" invalid
Error: no such device or model name m.xm6.msky130_fd_pr__nfet_01v8_lvt
Error(parse.c--checkvalid): @m.xm6.msky130_fd_pr__nfet_01v8_lvt[vth]: zero length vector.
Error: RHS "@m.xm6.msky130_fd_pr__nfet_01v8_lvt[vth]" invalid
Error: no such device or model name m.xm8.msky130_fd_pr__pfet_01v8_lvt
Error(parse.c--checkvalid): @m.xm8.msky130_fd_pr__pfet_01v8_lvt[w]: zero length vector.
Error: RHS "@m.xm8.msky130_fd_pr__pfet_01v8_lvt[w]" invalid
Error: no such device or model name m.xm8.msky130_fd_pr__pfet_01v8_lvt
Error(parse.c--checkvalid): @m.xm8.msky130_fd_pr__pfet_01v8_lvt[m]: zero length vector.
Error: RHS "@m.xm8.msky130_fd_pr__pfet_01v8_lvt[m]" invalid
Error(parse.c--checkvalid): wm8: zero length vector.
Error: RHS "wm8*mm8" invalid
Error(parse.c--checkvalid): id8: zero length vector.
Error: RHS "id8/weff8" invalid
Error: no such device or model name m.xm1.msky130_fd_pr__pfet_01v8_lvt
Error(parse.c--checkvalid): @m.xm1.msky130_fd_pr__pfet_01v8_lvt[w]: zero length vector.
Error: RHS "@m.xm1.msky130_fd_pr__pfet_01v8_lvt[w]" invalid
Error: no such device or model name m.xm1.msky130_fd_pr__pfet_01v8_lvt
Error(parse.c--checkvalid): @m.xm1.msky130_fd_pr__pfet_01v8_lvt[m]: zero length vector.
Error: RHS "@m.xm1.msky130_fd_pr__pfet_01v8_lvt[m]" invalid
Error(parse.c--checkvalid): wm1: zero length vector.
Error: RHS "wm1*mm1" invalid
Error(parse.c--checkvalid): id1: zero length vector.
Error: RHS "id1/weff1" invalid
Error: no such device or model name m.xm13.msky130_fd_pr__pfet_01v8_lvt
Error(parse.c--checkvalid): @m.xm13.msky130_fd_pr__pfet_01v8_lvt[w]: zero length vector.
Error: RHS "@m.xm13.msky130_fd_pr__pfet_01v8_lvt[w]" invalid
Error: no such device or model name m.xm13.msky130_fd_pr__pfet_01v8_lvt
Error(parse.c--checkvalid): @m.xm13.msky130_fd_pr__pfet_01v8_lvt[m]: zero length vector.
Error: RHS "@m.xm13.msky130_fd_pr__pfet_01v8_lvt[m]" invalid
Error(parse.c--checkvalid): wm13: zero length vector.
Error: RHS "wm13*mm13" invalid
Error: no such device or model name m.xm13.msky130_fd_pr__pfet_01v8_lvt
Error(parse.c--checkvalid): @m.xm13.msky130_fd_pr__pfet_01v8_lvt[id]: zero length vector.
Error: RHS "@m.xm13.msky130_fd_pr__pfet_01v8_lvt[id]" invalid
Error(parse.c--checkvalid): id13: zero length vector.
Error: RHS "id13/weff13" invalid
Error(parse.c--checkvalid): @m.xm13.msky130_fd_pr__pfet_01v8_lvt[gm]: zero length vector.
Error: RHS "@m.xm13.msky130_fd_pr__pfet_01v8_lvt[gm]" invalid
Error(parse.c--checkvalid): @m.xm3.msky130_fd_pr__pfet_01v8_lvt[gm]: zero length vector.
Error: RHS "@m.xm3.msky130_fd_pr__pfet_01v8_lvt[gm]" invalid
Error(parse.c--checkvalid): @m.xm4.msky130_fd_pr__pfet_01v8_lvt[gm]: zero length vector.
Error: RHS "@m.xm4.msky130_fd_pr__pfet_01v8_lvt[gm]" invalid
Error(parse.c--checkvalid): @m.xm5.msky130_fd_pr__nfet_01v8_lvt[gm]: zero length vector.
Error: RHS "@m.xm5.msky130_fd_pr__nfet_01v8_lvt[gm]" invalid
Error(parse.c--checkvalid): @m.xm6.msky130_fd_pr__nfet_01v8_lvt[gm]: zero length vector.
Error: RHS "@m.xm6.msky130_fd_pr__nfet_01v8_lvt[gm]" invalid
Error(parse.c--checkvalid): @m.xm7.msky130_fd_pr__nfet_01v8_lvt[gm]: zero length vector.
Error: RHS "@m.xm7.msky130_fd_pr__nfet_01v8_lvt[gm]" invalid
Error(parse.c--checkvalid): @m.xm8.msky130_fd_pr__pfet_01v8_lvt[gm]: zero length vector.
Error: RHS "@m.xm8.msky130_fd_pr__pfet_01v8_lvt[gm]" invalid
Error(parse.c--checkvalid): @m.xm9.msky130_fd_pr__nfet_01v8_lvt[gm]: zero length vector.
Error: RHS "@m.xm9.msky130_fd_pr__nfet_01v8_lvt[gm]" invalid
Error(parse.c--checkvalid): @m.xm1.msky130_fd_pr__pfet_01v8_lvt[gm]: zero length vector.
Error: RHS "@m.xm1.msky130_fd_pr__pfet_01v8_lvt[gm]" invalid
Error(parse.c--checkvalid): @m.xm2.msky130_fd_pr__pfet_01v8_lvt[gm]: zero length vector.
Error: RHS "@m.xm2.msky130_fd_pr__pfet_01v8_lvt[gm]" invalid
Error(parse.c--checkvalid): gm1: zero length vector.
Error: RHS "2/(gm1/vm1#branch)" invalid
Error(parse.c--checkvalid): gm2: zero length vector.
Error: RHS "2/(gm2/vm2#branch)" invalid
Error(parse.c--checkvalid): gm3: zero length vector.
Error: RHS "2/(gm3/vm3#branch)" invalid
Error: no such device or model name m.xm4.msky130_fd_pr__pfet_01v8_lvt
Error(parse.c--checkvalid): gm4: zero length vector.
Error: RHS "2/(gm4/@m.xm4.msky130_fd_pr__pfet_01v8_lvt[id])" invalid
Error: no such device or model name m.xm5.msky130_fd_pr__nfet_01v8_lvt
Error(parse.c--checkvalid): gm5: zero length vector.
Error: RHS "2/(gm5/@m.xm5.msky130_fd_pr__nfet_01v8_lvt[id])" invalid
Error: no such device or model name m.xm6.msky130_fd_pr__nfet_01v8_lvt
Error(parse.c--checkvalid): gm6: zero length vector.
Error: RHS "2/(gm6/@m.xm6.msky130_fd_pr__nfet_01v8_lvt[id])" invalid
Error: no such device or model name m.xm7.msky130_fd_pr__nfet_01v8_lvt
Error(parse.c--checkvalid): gm7: zero length vector.
Error: RHS "2/(gm7/@m.xm7.msky130_fd_pr__nfet_01v8_lvt[id])" invalid
Error: no such device or model name m.xm8.msky130_fd_pr__pfet_01v8_lvt
Error(parse.c--checkvalid): gm8: zero length vector.
Error: RHS "2/(gm8/@m.xm8.msky130_fd_pr__pfet_01v8_lvt[id])" invalid
Error: no such device or model name m.xm9.msky130_fd_pr__nfet_01v8_lvt
Error(parse.c--checkvalid): gm9: zero length vector.
Error: RHS "2/(gm9/@m.xm9.msky130_fd_pr__nfet_01v8_lvt[id])" invalid
Error: no such device or model name m.xm13.msky130_fd_pr__pfet_01v8_lvt
Error(parse.c--checkvalid): gm13: zero length vector.
Error: RHS "2/(gm13/@m.xm13.msky130_fd_pr__pfet_01v8_lvt[id])" invalid
binary raw file "./sims/tsmc_bandgap_real_op.raw"
Error(parse.c--checkvalid): vgate: zero length vector.
Error(parse.c--checkvalid): vdsat1: zero length vector.
ngspice-36 done
