
Circuit: **.subckt tsmc_bandgap_real_tran

Original line no.: 12, new internal line no.: 11862:
identifier expected.
Original line no.: 12, new internal line no.: 11862:
 Mismatch: 13 formal but 14 actual params.
sb=2;sd=1;mult=1;m=int((nf+1)/2)*w/nf*0.29;pd=int((nf+2)/2)*w/nf*0.29;ps=2*int((nf+1)/2)*(w/nf+0.29);nrd=2*int((nf+2)/2)*(w/nf+0.29);nrs=0.29/w;sa=0.29/w;sb=0;sd=0;mult=0;m=26.95;
Original line no.: 12, new internal line no.: 11862:
Undefined number [nf]
Original line no.: 12, new internal line no.: 11862:
 Expression err: nf+1)/2)*w/nf*0.29
Original line no.: 12, new internal line no.: 11862:
 Expression err: (nf+1)/2)*w/nf*0.29
Original line no.: 12, new internal line no.: 11862:
 Expression err: int((nf+1)/2)*w/nf*0.29
Original line no.: 12, new internal line no.: 11862:
 Formula() error.
      sb=2;sd=1;mult=1;m=int((nf+1)/2)*w/nf*0.29;pd=int((nf+2)/2)*w/nf*0.29;ps=2*int((nf+1)/2)*(w/nf+0.29);nrd=2*int((nf+2)/2)*(w/nf+0.29);nrs=0.29/w;sa=0.29/w;sb=0;sd=0;mult=0;m=26.95;
Original line no.: 0, new internal line no.: 12347:
Undefined number [l]
Original line no.: 0, new internal line no.: 12347:
Cannot compute substitute
Original line no.: 0, new internal line no.: 12348:
Undefined number [l]
Original line no.: 0, new internal line no.: 12348:
 Expression err: l*w*mult)))} dtox=0.0 ndep=1.7000000000000000e+17 nsd=1.0e+20 rshg=0.1 rsh=1.0 vth0={0.417908+mc_mm_switch*agauss(0,1.0,1)*(sky130_fd_pr__nfet_01v8_lvt__vth0_slope/sqrt(l*w*mult))} k1=0.47213 k2=-0.033282 k3=1.65 dvt0=0.07665 dvt1=0.1252 dvt2=-0.05637 dvt0w=0.0 dvt1w=5300000.0 dvt2w=-0.032 w0=1.0e-7 k3b=1.6 vfb=0.0 phin=0.0 lpe0=2.3802e-7 lpeb=-4.9152e-8 vbm=-3.0 dvtp0=0.0 dvtp1=0.0 vsat=161140.0 ua=-1.3015602e-9 ub=2.67551e-18 uc=7.0152e-11 rdsw=103.65 prwb=0.0 prwg=0.0 wr=1.0 u0=0.03198837 a0=1.9598449 keta=0.0 a1=0.0 a2=0.38689047 ags=0.5317926 b0=0.0 b1=0.0 eu=1.67 rdswmin=0.0 rdw=0.0 rdwmin=0.0 rsw=0.0 rswmin=0.0 voff={-0.11559919+mc_mm_switch*agauss(0,1.0,1)*(sky130_fd_pr__nfet_01v8_lvt__voff_slope/sqrt(l*w*mult))} nfactor={1.1019079+mc_mm_switch*agauss(0,1.0,1)*(sky130_fd_pr__nfet_01v8_lvt__nfactor_slope/sqrt(l*w*mult))} up=0.0 ud=0.0 lp=1.0 tvfbsdoff=0.0 tvoff=0.0 cit=1.0e-5 cdsc=3.8556e-37 cdscb=-0.00011484 cdscd=4.7984e-6 eta0=0.08 etab=-0.07 dsub=0.56 voffl=0.0 minv=0.0 pclm=0.2 pdiblc1=0.39 pdiblc2=0.0047977 pdiblcb=0.0 drout=3.4946 pscbe1=450000000.0 pscbe2=1.0e-8 pvag=0.0 delta=0.01 alpha0=8.4345657e-5 alpha1=0.0 beta0=17.822982 fprout=0.0 pdits=1.4427e-15 pditsl=0.0 pditsd=0.0 agidl=0.0 bgidl=2300000000.0 cgidl=0.5 egidl=0.8 aigbacc=1.0 bigbacc=0.0 cigbacc=0.0 nigbacc=1.0 aigbinv=0.35 bigbinv=0.03 cigbinv=0.006 eigbinv=1.1 nigbinv=3.0 aigc=0.43 bigc=0.054 cigc=0.075 nigc=1.0 aigsd=0.43 bigsd=0.054 cigsd=0.075 dlcig=0.0 poxedge=1.0 pigcd=1.0 ntox=1.0 toxref=4.148e-9 kt1=-0.25364 kt2=-0.034423 at=333080.0 ute=-1.0777 ua1=2.6823e-9 ub1=-2.4433e-18 uc1=-1.9223e-11 kt1l=0.0 prt=0.0 xrcrg1=12.0 xrcrg2=1.0 rbpb=50.0 rbpd=50.0 rbps=50.0 rbdb=50.0 rbsb=50.0 gbmin=1.0e-12 noia=9.0e+41 noib=1.0e+27 noic=800000000000.0 em=41000000.0 af=1.0 ef=1.2 kf=0.0 ntnoi=1.0 dmcg=0.0 dmcgt=0.0 dmdg=0.0 xgw=0.0 xgl=0.0 ngcon=1.0 diomod=1.0 njs=1.2928 jss=0.00275 jsws=6.0e-10 xtis=2.0 bvs=11.9 xjbvs=1.0 ijthsrev=0.1 ijthsfwd=0.1 tpb=0.0012287 tpbsw=0.0 tpbswg=0.0 tcj=0.000792 tcjsw=1.0e-5 tcjswg=0.0 cgdo=2.392894381e-10 cgso=2.392894381e-10 cgbo=1.0e-14 capmod=2.0 xpart=0.0 cgsl=2.310725e-11 cgdl=2.310725e-11 cf=1.0e-14 clc=1.0e-7 cle=0.6 dlc=1.21071e-8 dwc=2.6e-8 vfbcv=-1.0 acde=0.38008 moin=23.81 noff=3.8661 voffcv=-0.16994 ngate=1.0e+23 lwc=0.0 llc=0.0 lwlc=0.0 wlc=0.0 wwc=0.0 wwlc=0.0 ckappas=0.6 cjs=0.0012094836 mjs=0.42197 pbs=0.7477 cjsws=3.230311424e-11 mjsws=0.001 pbsws=0.1 cjswgs=1.795291232e-10 mjswgs=0.8 pbswgs=0.79644 saref=3.0e-6 sbref=3.0e-6 wlod={0+sky130_fd_pr__nfet_01v8_lvt__wlod_diff} kvth0={0+sky130_fd_pr__nfet_01v8_lvt__kvth0_diff} lkvth0={0+sky130_fd_pr__nfet_01v8_lvt__lkvth0_diff} wkvth0={0+sky130_fd_pr__nfet_01v8_lvt__wkvth0_diff} pkvth0=0.0 llodvth=0.0 wlodvth=1.0 stk2=0.0 lodk2=1.0 lodeta0=1.0 ku0={0+sky130_fd_pr__nfet_01v8_lvt__ku0_diff} lku0={0+sky130_fd_pr__nfet_01v8_lvt__lku0_diff} wku0={0+sky130_fd_pr__nfet_01v8_lvt__wku0_diff} pku0=0.0 llodku0=0.0 wlodku0=1.0 kvsat={0+sky130_fd_pr__nfet_01v8_lvt__kvsat_diff} steta0=0.0 tku0=0.0
Original line no.: 0, new internal line no.: 12348:
Cannot compute substitute
Original line no.: 0, new internal line no.: 12349:
Undefined number [l]
Original line no.: 0, new internal line no.: 12349:
 Expression err: l*w*mult)))} dtox=0.0 ndep=1.7000000000000000e+17 nsd=1.0e+20 rshg=0.1 rsh=1.0 vth0={4.065634200e-01+mc_mm_switch*agauss(0,1.0,1)*(sky130_fd_pr__nfet_01v8_lvt__vth0_slope2/sqrt(l*w*mult))} lvth0=9.048380250e-08 wvth0=7.882214154e-08 pvth0=-6.286814598e-13 k1=5.488515703e-01 lk1=-6.119274088e-07 wk1=-5.330614706e-07 pk1=4.251671636e-12 k2=-5.971089207e-02 lk2=2.107955217e-07 wk2=1.836279421e-07 pk2=-1.464607285e-12 k3=1.65 dvt0=0.07665 dvt1=0.1252 dvt2=-0.05637 dvt0w=0.0 dvt1w=5300000.0 dvt2w=-0.032 w0=1.0e-7 k3b=1.6 vfb=0.0 phin=0.0 lpe0=2.3802e-7 lpeb=-4.9152e-8 vbm=-3.0 dvtp0=0.0 dvtp1=0.0 vsat=7.374663231e+04 lvsat=6.970451310e-01 wvsat=6.072091187e-01 pvsat=-4.843069571e-6 ua=-1.339853632e-09 lua=3.054264999e-16 wua=2.660627664e-16 pua=-2.122103322e-21 ub=2.691095738e-18 lub=-1.243110679e-25 wub=-1.082897084e-25 pub=8.637132995e-31 uc=6.984327633e-11 luc=2.462364538e-18 wuc=2.145012044e-18 puc=-1.710850881e-23 rdsw=103.65 prwb=0.0 prwg=0.0 wr=1.0 u0=3.155047379e-02 lu0=3.492638310e-09 wu0=3.042502896e-09 pu0=-2.426685098e-14 a0=1.997305793e+00 la0=-2.987862100e-07 wa0=-2.602782850e-07 pa0=2.075966587e-12 keta=0.0 a1=0.0 a2=0.38689047 ags=5.149843589e-01 lags=1.340616906e-07 wags=1.167836592e-07 pags=-9.314606265e-13 b0=0.0 b1=0.0 eu=1.67 rdswmin=0.0 rdw=0.0 rdwmin=0.0 rsw=0.0 rswmin=0.0 voff={-1.120694636e-01+mc_mm_switch*agauss(0,1.0,1)*(sky130_fd_pr__nfet_01v8_lvt__voff_slope/sqrt(l*w*mult))} lvoff=-2.815292095e-08 wvoff=-2.452453874e-08 pvoff=1.956064948e-13 nfactor={1.187777049e+00+mc_mm_switch*agauss(0,1.0,1)*(sky130_fd_pr__nfet_01v8_lvt__nfactor_slope/sqrt(l*w*mult))} lnfactor=-6.848880369e-07 wnfactor=-5.966188454e-07 pnfactor=4.758602080e-12 up=0.0 ud=0.0 lp=1.0 tvfbsdoff=0.0 tvoff=0.0 cit=1.0e-5 cdsc=3.8556e-37 cdscb=-0.00011484 cdscd=4.7984e-6 eta0=0.08 etab=-0.07 dsub=0.56 voffl=0.0 minv=0.0 pclm=3.405322955e-01 lpclm=-1.120878562e-06 wpclm=-9.764183890e-07 ppclm=7.787864250e-12 pdiblc1=0.39 pdiblc2=2.886283880e-03 lpdiblc2=1.524535941e-08 wpdiblc2=1.328051920e-08 ppdiblc2=-1.059247572e-13 pdiblcb=0.0 drout=3.4946 pscbe1=450000000.0 pscbe2=1.0e-8 pvag=0.0 delta=0.01 alpha0=1.383516913e-04 lalpha0=-4.307494292e-10 walpha0=-3.752339263e-10 palpha0=2.992847034e-15 alpha1=0.0 beta0=1.812382841e+01 lbeta0=-2.399535901e-06 wbeta0=-2.090280837e-06 pbeta0=1.667197544e-11 fprout=0.0 pdits=1.4427e-15 pditsl=0.0 pditsd=0.0 agidl=0.0 bgidl=2300000000.0 cgidl=0.5 egidl=0.8 aigbacc=1.0 bigbacc=0.0 cigbacc=0.0 nigbacc=1.0 aigbinv=0.35 bigbinv=0.03 cigbinv=0.006 eigbinv=1.1 nigbinv=3.0 aigc=0.43 bigc=0.054 cigc=0.075 nigc=1.0 aigsd=0.43 bigsd=0.054 cigsd=0.075 dlcig=0.0 poxedge=1.0 pigcd=1.0 ntox=1.0 toxref=4.148e-9 kt1=-2.532233833e-01 lkt1=-3.322914083e-09 wkt1=-2.894652931e-09 pkt1=2.308760705e-14 kt2=-3.413777779e-02 lkt2=-2.274918103e-09 wkt2=-1.981723930e-09 pkt2=1.580613098e-14 at=6.161496924e+05 lat=-2.257749713e+00 wat=-1.966768223e+00 pat=1.568684501e-5 ute=-9.503648401e-01 lute=-1.015618868e-06 wute=-8.847246908e-07 pute=7.056519897e-12 ua1=2.422715740e-09 lua1=2.070431082e-15 wua1=1.803591442e-15 pua1=-1.438535516e-20 ub1=-1.556867822e-18 lub1=-7.070138733e-24 wub1=-6.158930775e-24 pub1=4.912332392e-29 uc1=-1.093873687e-11 luc1=-6.607486849e-17 wuc1=-5.755906021e-17 puc1=4.590881863e-22 kt1l=0.0 prt=0.0 xrcrg1=12.0 xrcrg2=1.0 rbpb=50.0 rbpd=50.0 rbps=50.0 rbdb=50.0 rbsb=50.0 gbmin=1.0e-12 noia=9.0e+41 noib=1.0e+27 noic=800000000000.0 em=41000000.0 af=1.0 ef=1.2 kf=0.0 ntnoi=1.0 dmcg=0.0 dmcgt=0.0 dmdg=0.0 xgw=0.0 xgl=0.0 ngcon=1.0 diomod=1.0 njs=1.2928 jss=0.00275 jsws=6.0e-10 xtis=2.0 bvs=11.9 xjbvs=1.0 ijthsrev=0.1 ijthsfwd=0.1 tpb=0.0012287 tpbsw=0.0 tpbswg=0.0 tcj=0.000792 tcjsw=1.0e-5 tcjswg=0.0 cgdo=2.392894381e-10 cgso=2.392894381e-10 cgbo=1.0e-14 capmod=2.0 xpart=0.0 cgsl=2.310725e-11 cgdl=2.310725e-11 cf=1.0e-14 clc=1.0e-7 cle=0.6 dlc=1.21071e-8 dwc=2.6e-8 vfbcv=-1.0 acde=0.38008 moin=23.81 noff=3.8661 voffcv=-0.16994 ngate=1.0e+23 lwc=0.0 llc=0.0 lwlc=0.0 wlc=0.0 wwc=0.0 wwlc=0.0 ckappas=0.6 cjs=0.0012094836 mjs=0.42197 pbs=0.7477 cjsws=3.230311424e-11 mjsws=0.001 pbsws=0.1 cjswgs=1.795291232e-10 mjswgs=0.8 pbswgs=0.79644 saref=3.0e-6 sbref=3.0e-6 wlod={0+sky130_fd_pr__nfet_01v8_lvt__wlod_diff} kvth0={0+sky130_fd_pr__nfet_01v8_lvt__kvth0_diff} lkvth0={0+sky130_fd_pr__nfet_01v8_lvt__lkvth0_diff} wkvth0={0+sky130_fd_pr__nfet_01v8_lvt__wkvth0_diff} pkvth0=0.0 llodvth=0.0 wlodvth=1.0 stk2=0.0 lodk2=1.0 lodeta0=1.0 ku0={0+sky130_fd_pr__nfet_01v8_lvt__ku0_diff} lku0={0+sky130_fd_pr__nfet_01v8_lvt__lku0_diff} wku0={0+sky130_fd_pr__nfet_01v8_lvt__wku0_diff} pku0=0.0 llodku0=0.0 wlodku0=1.0 kvsat={0+sky130_fd_pr__nfet_01v8_lvt__kvsat_diff} steta0=0.0 tku0=0.0
Original line no.: 0, new internal line no.: 12349:
Cannot compute substitute
Original line no.: 0, new internal line no.: 12350:
Undefined number [l]
Original line no.: 0, new internal line no.: 12350:
 Expression err: l*w*mult)))} dtox=0.0 ndep=1.7000000000000000e+17 nsd=1.0e+20 rshg=0.1 rsh=1.0 vth0={4.272748110e-01+mc_mm_switch*agauss(0,1.0,1)*(sky130_fd_pr__nfet_01v8_lvt__vth0_slope/sqrt(l*w*mult))} lvth0=8.136347530e-09 wvth0=-1.576442831e-07 pvth0=3.114972211e-13 k1=3.599249359e-01 lk1=1.392354435e-07 wk1=1.066122941e-06 pk1=-2.106605626e-12 k2=4.780166941e-03 lk2=-4.561770435e-08 wk2=-3.672558843e-07 pk2=7.256792645e-13 k3=1.65 dvt0=0.07665 dvt1=0.1252 dvt2=-0.05637 dvt0w=0.0 dvt1w=5300000.0 dvt2w=-0.032 w0=1.0e-7 k3b=1.6 vfb=0.0 phin=0.0 lpe0=2.3802e-7 lpeb=-4.9152e-8 vbm=-3.0 dvtp0=0.0 dvtp1=0.0 vsat=4.501850562e+05 lvsat=-7.996552203e-01 wvsat=-1.214418237e+00 pvsat=2.399629716e-6 ua=-1.300809062e-09 lua=1.501872405e-16 wua=-5.321255328e-16 pua=1.051453447e-21 ub=2.626614252e-18 lub=1.320640957e-25 wub=2.165794168e-25 pub=-4.279500985e-31 uc=6.801003316e-11 luc=9.751247726e-18 wuc=-4.290024088e-18 puc=8.476873096e-24 rdsw=103.65 prwb=0.0 prwg=0.0 wr=1.0 u0=3.075352180e-02 lu0=6.661279571e-09 wu0=-6.085005793e-09 pu0=1.202366720e-14 a0=1.873713451e+00 la0=1.926107635e-07 wa0=5.205565699e-07 pa0=-1.028593754e-12 keta=1.823110268e-01 lketa=-7.248595268e-7 a1=0.0 a2=0.38689047 ags=-3.674985624e-01 lags=3.642769662e-06 wags=-2.335673184e-07 pags=4.615173427e-13 b0=0.0 b1=0.0 eu=1.67 rdswmin=0.0 rdw=0.0 rdwmin=0.0 rsw=0.0 rswmin=0.0 voff={-1.223648486e-01+mc_mm_switch*agauss(0,1.0,1)*(sky130_fd_pr__nfet_01v8_lvt__voff_slope/sqrt(l*w*mult))} lvoff=1.278101484e-08 wvoff=4.904907748e-08 pvoff=-9.691852464e-14 nfactor={6.880557574e-01+mc_mm_switch*agauss(0,1.0,1)*(sky130_fd_pr__nfet_01v8_lvt__nfactor_slope/sqrt(l*w*mult))} lnfactor=1.301978831e-06 wnfactor=1.193237691e-06 pnfactor=-2.357778015e-12 up=0.0 ud=0.0 lp=1.0 tvfbsdoff=0.0 tvoff=0.0 cit=1.0e-5 cdsc=3.8556e-37 cdscb=-0.00011484 cdscd=4.7984e-6 eta0=1.585440125e-01 leta0=-3.122870665e-7 etab=-1.386642625e-01 letab=2.730056745e-7 dsub=8.336952366e-01 ldsub=-1.088198576e-6 voffl=0.0 minv=0.0 pclm=-1.108026385e-01 lpclm=6.736065685e-07 wpclm=1.952836778e-06 ppclm=-3.858707832e-12 pdiblc1=0.39 pdiblc2=4.773555186e-03 lpdiblc2=7.741663056e-09 wpdiblc2=-2.656103841e-08 ppdiblc2=5.248328385e-14 pdiblcb=0.0 drout=3.4946 pscbe1=450000000.0 pscbe2=1.0e-8 pvag=0.0 delta=0.01 alpha0=-6.460214106e-05 lalpha0=3.761848605e-10 walpha0=7.504678525e-10 palpha0=-1.482886953e-15 alpha1=0.0 beta0=1.378943650e+01 lbeta0=1.483378959e-05 wbeta0=4.180561674e-06 pbeta0=-8.260580840e-12 fprout=0.0 pdits=1.4427e-15 pditsl=0.0 pditsd=0.0 agidl=0.0 bgidl=2300000000.0 cgidl=0.5 egidl=0.8 aigbacc=1.0 bigbacc=0.0 cigbacc=0.0 nigbacc=1.0 aigbinv=0.35 bigbinv=0.03 cigbinv=0.006 eigbinv=1.1 nigbinv=3.0 aigc=0.43 bigc=0.054 cigc=0.075 nigc=1.0 aigsd=0.43 bigsd=0.054 cigsd=0.075 dlcig=0.0 poxedge=1.0 pigcd=1.0 ntox=1.0 toxref=4.148e-9 kt1=-2.544831132e-01 lkt1=1.685708985e-09 wkt1=5.789305862e-09 pkt1=-1.143937892e-14 kt2=-3.970410922e-02 lkt2=1.985653737e-08 wkt2=3.963447860e-09 pkt2=-7.831574798e-15 at=4.525514858e+04 lat=1.209844826e-02 wat=3.933536446e+00 pat=-7.772471341e-6 ute=-1.241970607e+00 lute=1.437910814e-07 wute=1.769449382e-06 pute=-3.496343505e-12 ua1=2.638520366e-09 lua1=1.212402678e-15 wua1=-3.607182884e-15 pua1=7.127613019e-21 ub1=-2.908579444e-18 lub1=-1.695800907e-24 wub1=1.231786155e-23 pub1=-2.433947853e-29 uc1=-2.045321438e-11 luc1=-2.824578165e-17 wuc1=1.151181204e-16 puc1=-2.274676500e-22 kt1l=0.0 prt=0.0 xrcrg1=12.0 xrcrg2=1.0 rbpb=50.0 rbpd=50.0 rbps=50.0 rbdb=50.0 rbsb=50.0 gbmin=1.0e-12 noia=9.0e+41 noib=1.0e+27 noic=800000000000.0 em=41000000.0 af=1.0 ef=1.2 kf=0.0 ntnoi=1.0 dmcg=0.0 dmcgt=0.0 dmdg=0.0 xgw=0.0 xgl=0.0 ngcon=1.0 diomod=1.0 njs=1.2928 jss=0.00275 jsws=6.0e-10 xtis=2.0 bvs=11.9 xjbvs=1.0 ijthsrev=0.1 ijthsfwd=0.1 tpb=0.0012287 tpbsw=0.0 tpbswg=0.0 tcj=0.000792 tcjsw=1.0e-5 tcjswg=0.0 cgdo=2.392894381e-10 cgso=2.392894381e-10 cgbo=1.0e-14 capmod=2.0 xpart=0.0 cgsl=2.310725e-11 cgdl=2.310725e-11 cf=1.0e-14 clc=1.0e-7 cle=0.6 dlc=1.21071e-8 dwc=2.6e-8 vfbcv=-1.0 acde=0.38008 moin=23.81 noff=3.8661 voffcv=-0.16994 ngate=1.0e+23 lwc=0.0 llc=0.0 lwlc=0.0 wlc=0.0 wwc=0.0 wwlc=0.0 ckappas=0.6 cjs=0.0012094836 mjs=0.42197 pbs=0.7477 cjsws=3.230311424e-11 mjsws=0.001 pbsws=0.1 cjswgs=1.795291232e-10 mjswgs=0.8 pbswgs=0.79644 saref=3.0e-6 sbref=3.0e-6 wlod={0+sky130_fd_pr__nfet_01v8_lvt__wlod_diff} kvth0={0+sky130_fd_pr__nfet_01v8_lvt__kvth0_diff} lkvth0={0+sky130_fd_pr__nfet_01v8_lvt__lkvth0_diff} wkvth0={0+sky130_fd_pr__nfet_01v8_lvt__wkvth0_diff} pkvth0=0.0 llodvth=0.0 wlodvth=1.0 stk2=0.0 lodk2=1.0 lodeta0=1.0 ku0={0+sky130_fd_pr__nfet_01v8_lvt__ku0_diff} lku0={0+sky130_fd_pr__nfet_01v8_lvt__lku0_diff} wku0={0+sky130_fd_pr__nfet_01v8_lvt__wku0_diff} pku0=0.0 llodku0=0.0 wlodku0=1.0 kvsat={0+sky130_fd_pr__nfet_01v8_lvt__kvsat_diff} steta0=0.0 tku0=0.0
Original line no.: 0, new internal line no.: 12350:
Cannot compute substitute
Original line no.: 0, new internal line no.: 12351:
Undefined number [l]
Original line no.: 0, new internal line no.: 12351:
 Expression err: l*w*mult)))} dtox=0.0 ndep=1.7000000000000000e+17 nsd=1.0e+20 rshg=0.1 rsh=1.0 vth0={4.281499842e-01+mc_mm_switch*agauss(0,1.0,1)*(sky130_fd_pr__nfet_01v8_lvt__vth0_slope/sqrt(l*w*mult))} lvth0=6.407049093e-9 k1=4.290139105e-01 lk1=2.719084048e-9 k2=-1.426108485e-02 lk2=-7.993142886e-9 k3=1.65 dvt0=0.07665 dvt1=0.1252 dvt2=-0.05637 dvt0w=0.0 dvt1w=5300000.0 dvt2w=-0.032 w0=1.0e-7 k3b=1.6 vfb=0.0 phin=0.0 lpe0=2.3802e-7 lpeb=-4.9152e-8 vbm=-3.0 dvtp0=0.0 dvtp1=0.0 vsat=1.918426775e+04 lvsat=5.198078759e-2 ua=-9.501342298e-10 lua=-5.427286938e-16 ub=2.617706520e-18 lub=1.496653283e-25 uc=5.966524835e-11 luc=2.624012527e-17 rdsw=103.65 prwb=0.0 prwg=0.0 wr=1.0 u0=3.824115950e-02 lu0=-8.133918159e-9 a0=2.190574410e+00 la0=-4.334906492e-07 wa0=3.388131789e-21 keta=-1.449161895e-01 lketa=-7.827490886e-8 a1=0.0 a2=0.38689047 ags=8.170574498e-01 lags=1.302146209e-6 b0=0.0 b1=0.0 eu=1.67 rdswmin=0.0 rdw=0.0 rdwmin=0.0 rsw=0.0 rswmin=0.0 voff={-1.170681977e-01+mc_mm_switch*agauss(0,1.0,1)*(sky130_fd_pr__nfet_01v8_lvt__voff_slope/sqrt(l*w*mult))} lvoff=2.315097581e-9 nfactor={9.331405229e-01+mc_mm_switch*agauss(0,1.0,1)*(sky130_fd_pr__nfet_01v8_lvt__nfactor_slope/sqrt(l*w*mult))} lnfactor=8.177035890e-7 up=0.0 ud=0.0 lp=1.0 tvfbsdoff=0.0 tvoff=0.0 cit=1.487975000e-05 lcit=-9.642142013e-12 cdsc=3.8556e-37 cdscb=-0.00011484 cdscd=4.7984e-6 eta0=5.912122870e-04 leta0=-1.802309185e-10 etab=-5.415949890e-04 letab=8.218961851e-11 dsub=-5.153016090e-02 ldsub=6.609625483e-7 voffl=0.0 minv=0.0 pclm=2.292314045e-01 lpclm=1.716301278e-9 pdiblc1=0.39 pdiblc2=7.015305875e-03 lpdiblc2=3.312075781e-9 pdiblcb=0.0 drout=3.4946 pscbe1=450000000.0 pscbe2=1.0e-8 pvag=0.0 delta=0.01 alpha0=1.865945616e-04 lalpha0=-1.201672640e-10 alpha1=0.0 beta0=2.119695075e+01 lbeta0=1.969118242e-7 fprout=0.0 pdits=1.4427e-15 pditsl=0.0 pditsd=0.0 agidl=0.0 bgidl=2300000000.0 cgidl=0.5 egidl=0.8 aigbacc=1.0 bigbacc=0.0 cigbacc=0.0 nigbacc=1.0 aigbinv=0.35 bigbinv=0.03 cigbinv=0.006 eigbinv=1.1 nigbinv=3.0 aigc=0.43 bigc=0.054 cigc=0.075 nigc=1.0 aigsd=0.43 bigsd=0.054 cigsd=0.075 dlcig=0.0 poxedge=1.0 pigcd=1.0 ntox=1.0 toxref=4.148e-9 kt1=-2.506826310e-01 lkt1=-5.823853776e-9 kt2=-4.595043715e-02 lkt2=3.219896904e-8 at=3.099626020e+04 lat=4.027329876e-2 ute=-1.324376050e+00 lute=3.066201160e-7 ua1=3.273961280e-09 lua1=-4.319679622e-17 ub1=-3.908312750e-18 lub1=2.796221184e-25 uc1=1.127389820e-11 luc1=-9.093696975e-17 kt1l=0.0 prt=0.0 xrcrg1=12.0 xrcrg2=1.0 rbpb=50.0 rbpd=50.0 rbps=50.0 rbdb=50.0 rbsb=50.0 gbmin=1.0e-12 noia=9.0e+41 noib=1.0e+27 noic=800000000000.0 em=41000000.0 af=1.0 ef=1.2 kf=0.0 ntnoi=1.0 dmcg=0.0 dmcgt=0.0 dmdg=0.0 xgw=0.0 xgl=0.0 ngcon=1.0 diomod=1.0 njs=1.2928 jss=0.00275 jsws=6.0e-10 xtis=2.0 bvs=11.9 xjbvs=1.0 ijthsrev=0.1 ijthsfwd=0.1 tpb=0.0012287 tpbsw=0.0 tpbswg=0.0 tcj=0.000792 tcjsw=1.0e-5 tcjswg=0.0 cgdo=2.392894381e-10 cgso=2.392894381e-10 cgbo=1.0e-14 capmod=2.0 xpart=0.0 cgsl=2.310725e-11 cgdl=2.310725e-11 cf=1.0e-14 clc=1.0e-7 cle=0.6 dlc=1.21071e-8 dwc=2.6e-8 vfbcv=-1.0 acde=0.38008 moin=23.81 noff=3.8661 voffcv=-0.16994 ngate=1.0e+23 lwc=0.0 llc=0.0 lwlc=0.0 wlc=0.0 wwc=0.0 wwlc=0.0 ckappas=0.6 cjs=0.0012094836 mjs=0.42197 pbs=0.7477 cjsws=3.230311424e-11 mjsws=0.001 pbsws=0.1 cjswgs=1.795291232e-10 mjswgs=0.8 pbswgs=0.79644 saref=2.74e-6 sbref=2.74e-6 wlod={0+sky130_fd_pr__nfet_01v8_lvt__wlod_diff} kvth0={0+sky130_fd_pr__nfet_01v8_lvt__kvth0_diff} lkvth0={0+sky130_fd_pr__nfet_01v8_lvt__lkvth0_diff} wkvth0={0+sky130_fd_pr__nfet_01v8_lvt__wkvth0_diff} pkvth0=0.0 llodvth=0.0 wlodvth=1.0 stk2=0.0 lodk2=1.0 lodeta0=1.0 ku0={0+sky130_fd_pr__nfet_01v8_lvt__ku0_diff} lku0={0+sky130_fd_pr__nfet_01v8_lvt__lku0_diff} wku0={0+sky130_fd_pr__nfet_01v8_lvt__wku0_diff} pku0=0.0 llodku0=0.0 wlodku0=1.0 kvsat={0+sky130_fd_pr__nfet_01v8_lvt__kvsat_diff} steta0=0.0 tku0=0.0
Original line no.: 0, new internal line no.: 12351:
Cannot compute substitute
Original line no.: 0, new internal line no.: 12352:
Undefined number [l]
Original line no.: 0, new internal line no.: 12352:
 Expression err: l*w*mult)))} dtox=0.0 ndep=1.7000000000000000e+17 nsd=1.0e+20 rshg=0.1 rsh=1.0 vth0={4.415412995e-01+mc_mm_switch*agauss(0,1.0,1)*(sky130_fd_pr__nfet_01v8_lvt__vth0_slope/sqrt(l*w*mult))} lvth0=-6.662205081e-9 k1=4.337989900e-01 lk1=-1.950914290e-9 k2=-1.718793358e-02 lk2=-5.136684864e-9 k3=1.65 dvt0=0.07665 dvt1=0.1252 dvt2=-0.05637 dvt0w=0.0 dvt1w=5300000.0 dvt2w=-0.032 w0=1.0e-7 k3b=1.6 vfb=0.0 phin=0.0 lpe0=2.3802e-7 lpeb=-4.9152e-8 vbm=-3.0 dvtp0=0.0 dvtp1=0.0 vsat=1.761046784e+04 lvsat=5.351673761e-2 ua=-1.221602632e-09 lua=-2.777891065e-16 ub=2.751298556e-18 lub=1.928618127e-26 uc=1.074233594e-10 luc=-2.036940321e-17 rdsw=103.65 prwb=0.0 prwg=0.0 wr=1.0 u0=3.407221921e-02 lu0=-4.065240878e-9 a0=2.020645123e+00 la0=-2.676481611e-7 keta=-4.305008473e-01 lketa=2.004414379e-7 a1=0.0 a2=0.38689047 ags=2.933555805e+00 lags=-7.634503603e-7 b0=0.0 b1=0.0 eu=1.67 rdswmin=0.0 rdw=0.0 rdwmin=0.0 rsw=0.0 rswmin=0.0 voff={-1.149696165e-01+mc_mm_switch*agauss(0,1.0,1)*(sky130_fd_pr__nfet_01v8_lvt__voff_slope/sqrt(l*w*mult))} lvoff=2.669872657e-10 nfactor={1.346903917e+00+mc_mm_switch*agauss(0,1.0,1)*(sky130_fd_pr__nfet_01v8_lvt__nfactor_slope/sqrt(l*w*mult))} lnfactor=4.138912047e-7 up=0.0 ud=0.0 lp=1.0 tvfbsdoff=0.0 tvoff=0.0 cit=5.0e-6 cdsc=3.8556e-37 cdscb=-0.00011484 cdscd=4.7984e-6 eta0=7.840064260e-04 leta0=-3.683883585e-10 etab=-8.332985405e-04 letab=3.668776996e-10 dsub=2.694433755e-01 ldsub=3.477084254e-7 voffl=0.0 minv=0.0 pclm=-4.127243800e-02 lpclm=2.657145264e-7 pdiblc1=0.39 pdiblc2=1.030333910e-02 lpdiblc2=1.031197554e-10 pdiblcb=0.0 drout=3.4946 pscbe1=450000000.0 pscbe2=1.0e-8 pvag=0.0 delta=0.01 alpha0=-2.816033686e-05 lalpha0=8.942277909e-11 alpha1=0.0 beta0=1.856086122e+01 lbeta0=2.769603395e-6 fprout=0.0 pdits=1.4427e-15 pditsl=0.0 pditsd=0.0 agidl=0.0 bgidl=2300000000.0 cgidl=0.5 egidl=0.8 aigbacc=1.0 bigbacc=0.0 cigbacc=0.0 nigbacc=1.0 aigbinv=0.35 bigbinv=0.03 cigbinv=0.006 eigbinv=1.1 nigbinv=3.0 aigc=0.43 bigc=0.054 cigc=0.075 nigc=1.0 aigsd=0.43 bigsd=0.054 cigsd=0.075 dlcig=0.0 poxedge=1.0 pigcd=1.0 ntox=1.0 toxref=4.148e-9 kt1=-2.506815870e-01 lkt1=-5.824872667e-9 kt2=-1.336252900e-03 lkt2=-1.134224408e-8 at=7.236385330e+04 lat=-9.940372813e-5 ute=-1.005059740e+00 lute=-5.016636747e-9 ua1=4.029867140e-09 lua1=-7.809231203e-16 ub1=-4.686309770e-18 lub1=1.038908310e-24 uc1=-1.680361004e-10 luc1=8.406062335e-17 kt1l=0.0 prt=0.0 xrcrg1=12.0 xrcrg2=1.0 rbpb=50.0 rbpd=50.0 rbps=50.0 rbdb=50.0 rbsb=50.0 gbmin=1.0e-12 noia=9.0e+41 noib=1.0e+27 noic=800000000000.0 em=41000000.0 af=1.0 ef=1.2 kf=0.0 ntnoi=1.0 dmcg=0.0 dmcgt=0.0 dmdg=0.0 xgw=0.0 xgl=0.0 ngcon=1.0 diomod=1.0 njs=1.2928 jss=0.00275 jsws=6.0e-10 xtis=2.0 bvs=11.9 xjbvs=1.0 ijthsrev=0.1 ijthsfwd=0.1 tpb=0.0012287 tpbsw=0.0 tpbswg=0.0 tcj=0.000792 tcjsw=1.0e-5 tcjswg=0.0 cgdo=2.392894381e-10 cgso=2.392894381e-10 cgbo=1.0e-14 capmod=2.0 xpart=0.0 cgsl=2.310725e-11 cgdl=2.310725e-11 cf=1.0e-14 clc=1.0e-7 cle=0.6 dlc=1.21071e-8 dwc=2.6e-8 vfbcv=-1.0 acde=0.38008 moin=23.81 noff=3.8661 voffcv=-0.16994 ngate=1.0e+23 lwc=0.0 llc=0.0 lwlc=0.0 wlc=0.0 wwc=0.0 wwlc=0.0 ckappas=0.6 cjs=0.0012094836 mjs=0.42197 pbs=0.7477 cjsws=3.230311424e-11 mjsws=0.001 pbsws=0.1 cjswgs=1.795291232e-10 mjswgs=0.8 pbswgs=0.79644 saref=1.74e-6 sbref=1.74e-6 wlod={0+sky130_fd_pr__nfet_01v8_lvt__wlod_diff} kvth0={0+sky130_fd_pr__nfet_01v8_lvt__kvth0_diff} lkvth0={0+sky130_fd_pr__nfet_01v8_lvt__lkvth0_diff} wkvth0={0+sky130_fd_pr__nfet_01v8_lvt__wkvth0_diff} pkvth0=0.0 llodvth=0.0 wlodvth=1.0 stk2=0.0 lodk2=1.0 lodeta0=1.0 ku0={0+sky130_fd_pr__nfet_01v8_lvt__ku0_diff} lku0={0+sky130_fd_pr__nfet_01v8_lvt__lku0_diff} wku0={0+sky130_fd_pr__nfet_01v8_lvt__wku0_diff} pku0=0.0 llodku0=0.0 wlodku0=1.0 kvsat={0+sky130_fd_pr__nfet_01v8_lvt__kvsat_diff} steta0=0.0 tku0=0.0
Original line no.: 0, new internal line no.: 12352:
Cannot compute substitute
Original line no.: 0, new internal line no.: 12353:
Undefined number [l]
Original line no.: 0, new internal line no.: 12353:
 Expression err: l*w*mult)))} dtox=0.0 ndep=1.7000000000000000e+17 nsd=1.0e+20 rshg=0.1 rsh=1.0 vth0={4.955659379e-01+mc_mm_switch*agauss(0,1.0,1)*(sky130_fd_pr__nfet_01v8_lvt__vth0_slope/sqrt(l*w*mult))} lvth0=-3.237523171e-8 k1=2.939492400e-01 lk1=6.461057422e-8 k2=1.411904655e-02 lk2=-2.003724206e-08 pk2=1.262177448e-29 k3=1.65 dvt0=0.07665 dvt1=0.1252 dvt2=-0.05637 dvt0w=0.0 dvt1w=5300000.0 dvt2w=-0.032 w0=1.0e-7 k3b=1.6 vfb=0.0 phin=0.0 lpe0=2.3802e-7 lpeb=-4.9152e-8 vbm=-3.0 dvtp0=0.0 dvtp1=0.0 vsat=9.862158910e+04 lvsat=1.495949445e-2 ua=-1.685639191e-09 lua=-5.693090631e-17 ub=2.816927564e-18 lub=-1.194994509e-26 uc=7.395486363e-11 luc=-4.440072643e-18 rdsw=103.65 prwb=0.0 prwg=0.0 wr=1.0 u0=2.785579897e-02 lu0=-1.106535664e-9 a0=1.318301380e+00 la0=6.663234319e-8 keta=-1.362724654e-02 lketa=2.030447647e-9 a1=0.0 a2=0.38689047 ags=2.531102100e+00 lags=-5.719025195e-7 b0=0.0 b1=0.0 eu=1.67 rdswmin=0.0 rdw=0.0 rdwmin=0.0 rsw=0.0 rswmin=0.0 voff={-1.186422400e-01+mc_mm_switch*agauss(0,1.0,1)*(sky130_fd_pr__nfet_01v8_lvt__voff_slope/sqrt(l*w*mult))} lvoff=2.014972382e-9 nfactor={1.984499198e+00+mc_mm_switch*agauss(0,1.0,1)*(sky130_fd_pr__nfet_01v8_lvt__nfactor_slope/sqrt(l*w*mult))} lnfactor=1.104277305e-7 up=0.0 ud=0.0 lp=1.0 tvfbsdoff=0.0 tvoff=0.0 cit=5.0e-6 cdsc=3.8556e-37 cdscb=-0.00011484 cdscd=4.7984e-6 eta0=-5.197693883e-03 leta0=2.478601904e-09 weta0=-1.654361225e-24 peta0=6.779273404e-31 etab=2.455547952e-02 letab=-1.171691122e-08 wetab=7.031035207e-24 petab=1.627025617e-30 dsub=1.659631037e+00 ldsub=-3.139513920e-7 voffl=0.0 minv=0.0 pclm=6.407131060e-01 lpclm=-5.887649330e-8 pdiblc1=0.39 pdiblc2=7.428100200e-03 lpdiblc2=1.471589710e-9 pdiblcb=0.0 drout=3.4946 pscbe1=450000000.0 pscbe2=1.0e-8 pvag=0.0 delta=0.01 alpha0=-2.283466402e-03 lalpha0=1.162835701e-09 walpha0=-4.135903063e-25 palpha0=1.972152263e-31 alpha1=0.0 beta0=1.815423470e+01 lbeta0=2.963137290e-6 fprout=0.0 pdits=1.4427e-15 pditsl=0.0 pditsd=0.0 agidl=0.0 bgidl=2300000000.0 cgidl=0.5 egidl=0.8 aigbacc=1.0 bigbacc=0.0 cigbacc=0.0 nigbacc=1.0 aigbinv=0.35 bigbinv=0.03 cigbinv=0.006 eigbinv=1.1 nigbinv=3.0 aigc=0.43 bigc=0.054 cigc=0.075 nigc=1.0 aigsd=0.43 bigsd=0.054 cigsd=0.075 dlcig=0.0 poxedge=1.0 pigcd=1.0 ntox=1.0 toxref=4.148e-9 kt1=-2.539452660e-01 lkt1=-4.271524647e-9 kt2=-2.835108740e-02 lkt2=1.515466398e-9 at=8.746446820e+04 lat=-7.286541390e-3 ute=-4.267743000e-01 lute=-2.802515919e-7 ua1=4.105298706e-09 lua1=-8.168247741e-16 ub1=-4.131849346e-18 lub1=7.750128712e-25 uc1=4.935840992e-11 luc1=-1.940829382e-17 wuc1=2.465190329e-32 kt1l=0.0 prt=0.0 xrcrg1=12.0 xrcrg2=1.0 rbpb=50.0 rbpd=50.0 rbps=50.0 rbdb=50.0 rbsb=50.0 gbmin=1.0e-12 noia=9.0e+41 noib=1.0e+27 noic=800000000000.0 em=41000000.0 af=1.0 ef=1.2 kf=0.0 ntnoi=1.0 dmcg=0.0 dmcgt=0.0 dmdg=0.0 xgw=0.0 xgl=0.0 ngcon=1.0 diomod=1.0 njs=1.2928 jss=0.00275 jsws=6.0e-10 xtis=2.0 bvs=11.9 xjbvs=1.0 ijthsrev=0.1 ijthsfwd=0.1 tpb=0.0012287 tpbsw=0.0 tpbswg=0.0 tcj=0.000792 tcjsw=1.0e-5 tcjswg=0.0 cgdo=2.392894381e-10 cgso=2.392894381e-10 cgbo=1.0e-14 capmod=2.0 xpart=0.0 cgsl=2.310725e-11 cgdl=2.310725e-11 cf=1.0e-14 clc=1.0e-7 cle=0.6 dlc=1.21071e-8 dwc=2.6e-8 vfbcv=-1.0 acde=0.38008 moin=23.81 noff=3.8661 voffcv=-0.16994 ngate=1.0e+23 lwc=0.0 llc=0.0 lwlc=0.0 wlc=0.0 wwc=0.0 wwlc=0.0 ckappas=0.6 cjs=0.0012094836 mjs=0.42197 pbs=0.7477 cjsws=3.230311424e-11 mjsws=0.001 pbsws=0.1 cjswgs=1.795291232e-10 mjswgs=0.8 pbswgs=0.79644 saref=1.25e-6 sbref=1.24e-6 wlod={0+sky130_fd_pr__nfet_01v8_lvt__wlod_diff} kvth0={0+sky130_fd_pr__nfet_01v8_lvt__kvth0_diff} lkvth0={0+sky130_fd_pr__nfet_01v8_lvt__lkvth0_diff} wkvth0={0+sky130_fd_pr__nfet_01v8_lvt__wkvth0_diff} pkvth0=0.0 llodvth=0.0 wlodvth=1.0 stk2=0.0 lodk2=1.0 lodeta0=1.0 ku0={0+sky130_fd_pr__nfet_01v8_lvt__ku0_diff} lku0={0+sky130_fd_pr__nfet_01v8_lvt__lku0_diff} wku0={0+sky130_fd_pr__nfet_01v8_lvt__wku0_diff} pku0=0.0 llodku0=0.0 wlodku0=1.0 kvsat={0+sky130_fd_pr__nfet_01v8_lvt__kvsat_diff} steta0=0.0 tku0=0.0
Original line no.: 0, new internal line no.: 12353:
Cannot compute substitute
Original line no.: 0, new internal line no.: 12354:
Undefined number [l]
Original line no.: 0, new internal line no.: 12354:
 Expression err: l*w*mult)))} dtox=0.0 ndep=1.7000000000000000e+17 nsd=1.0e+20 rshg=0.1 rsh=1.0 vth0={6.085981921e-01+mc_mm_switch*agauss(0,1.0,1)*(sky130_fd_pr__nfet_01v8_lvt__vth0_slope1/sqrt(l*w*mult))} lvth0=-5.791486956e-8 k1=3.156315857e-01 lk1=5.971144821e-8 k2=-4.315366053e-03 lk2=-1.587198653e-8 k3=1.65 dvt0=0.07665 dvt1=0.1252 dvt2=-0.05637 dvt0w=0.0 dvt1w=5300000.0 dvt2w=-0.032 w0=1.0e-7 k3b=1.6 vfb=0.0 phin=0.0 lpe0=2.3802e-7 lpeb=-4.9152e-8 vbm=-3.0 dvtp0=0.0 dvtp1=0.0 vsat=1.521236440e+05 lvsat=2.870705142e-3 ua=-9.341333047e-10 lua=-2.267336613e-16 ub=2.603968464e-18 lub=3.616816349e-26 uc=8.319096704e-11 luc=-6.526970211e-18 rdsw=103.65 prwb=0.0 prwg=0.0 wr=1.0 u0=3.935215995e-02 lu0=-3.704138428e-9 a0=5.207179143e+00 la0=-8.120595873e-7 keta=2.463675731e-01 lketa=-5.671538185e-08 wketa=-6.617444900e-23 pketa=-1.577721810e-29 a1=0.0 a2=0.38689047 ags=-2.681894429e+00 lags=6.059740461e-7 b0=0.0 b1=0.0 eu=1.67 rdswmin=0.0 rdw=0.0 rdwmin=0.0 rsw=0.0 rswmin=0.0 voff={-1.639417362e-01+mc_mm_switch*agauss(0,1.0,1)*(sky130_fd_pr__nfet_01v8_lvt__voff_slope/sqrt(l*w*mult))} lvoff=1.225039357e-8 nfactor={1.251539366e+00+mc_mm_switch*agauss(0,1.0,1)*(sky130_fd_pr__nfet_01v8_lvt__nfactor_slope/sqrt(l*w*mult))} lnfactor=2.760400046e-7 up=0.0 ud=0.0 lp=1.0 tvfbsdoff=0.0 tvoff=0.0 cit=5.0e-6 cdsc=3.8556e-37 cdscb=-0.00011484 cdscd=4.7984e-6 eta0=-1.539000915e-01 leta0=3.607790865e-08 weta0=5.293955920e-23 peta0=-2.208810535e-29 etab=-5.508974867e-02 letab=6.278928090e-9 dsub=1.548726549e-01 ldsub=2.604876439e-8 voffl=0.0 minv=0.0 pclm=8.965795643e-01 lpclm=-1.166895196e-7 pdiblc1=-9.689928571e-01 lpdiblc1=3.070644361e-07 ppdiblc1=2.019483917e-28 pdiblc2=1.446009071e-02 lpdiblc2=-1.172885469e-10 pdiblcb=0.0 drout=3.4946 pscbe1=450000000.0 pscbe2=1.0e-8 pvag=0.0 delta=0.01 alpha0=7.807445428e-03 lalpha0=-1.117205827e-9 alpha1=0.0 beta0=3.632420408e+01 lbeta0=-1.142367291e-6 fprout=0.0 pdits=1.4427e-15 pditsl=0.0 pditsd=0.0 agidl=0.0 bgidl=2300000000.0 cgidl=0.5 egidl=0.8 aigbacc=1.0 bigbacc=0.0 cigbacc=0.0 nigbacc=1.0 aigbinv=0.35 bigbinv=0.03 cigbinv=0.006 eigbinv=1.1 nigbinv=3.0 aigc=0.43 bigc=0.054 cigc=0.075 nigc=1.0 aigsd=0.43 bigsd=0.054 cigsd=0.075 dlcig=0.0 poxedge=1.0 pigcd=1.0 ntox=1.0 toxref=4.148e-9 kt1=-1.821762143e-01 lkt1=-2.048774188e-8 kt2=-3.510916857e-02 lkt2=3.042454839e-9 at=1.366878571e+02 lat=1.244517058e-2 ute=-1.139543429e+00 lute=-1.192014073e-7 ua1=1.541707280e-09 lua1=-2.375812914e-16 ub1=-1.995903100e-18 lub1=2.923958169e-25 pub1=3.503246161e-46 uc1=-1.221356132e-10 luc1=1.934078071e-17 kt1l=0.0 prt=0.0 xrcrg1=12.0 xrcrg2=1.0 rbpb=50.0 rbpd=50.0 rbps=50.0 rbdb=50.0 rbsb=50.0 gbmin=1.0e-12 noia=9.0e+41 noib=1.0e+27 noic=800000000000.0 em=41000000.0 af=1.0 ef=1.2 kf=0.0 ntnoi=1.0 dmcg=0.0 dmcgt=0.0 dmdg=0.0 xgw=0.0 xgl=0.0 ngcon=1.0 diomod=1.0 njs=1.2928 jss=0.00275 jsws=6.0e-10 xtis=2.0 bvs=11.9 xjbvs=1.0 ijthsrev=0.1 ijthsfwd=0.1 tpb=0.0012287 tpbsw=0.0 tpbswg=0.0 tcj=0.000792 tcjsw=1.0e-5 tcjswg=0.0 cgdo=2.392894381e-10 cgso=2.392894381e-10 cgbo=1.0e-14 capmod=2.0 xpart=0.0 cgsl=2.310725e-11 cgdl=2.310725e-11 cf=1.0e-14 clc=1.0e-7 cle=0.6 dlc=1.21071e-8 dwc=2.6e-8 vfbcv=-1.0 acde=0.38008 moin=23.81 noff=3.8661 voffcv=-0.16994 ngate=1.0e+23 lwc=0.0 llc=0.0 lwlc=0.0 wlc=0.0 wwc=0.0 wwlc=0.0 ckappas=0.6 cjs=0.0012094836 mjs=0.42197 pbs=0.7477 cjsws=3.230311424e-11 mjsws=0.001 pbsws=0.1 cjswgs=1.795291232e-10 mjswgs=0.8 pbswgs=0.79644 saref=1.1e-6 sbref=1.1e-6 wlod={0+sky130_fd_pr__nfet_01v8_lvt__wlod_diff} kvth0={0+sky130_fd_pr__nfet_01v8_lvt__kvth0_diff} lkvth0={0+sky130_fd_pr__nfet_01v8_lvt__lkvth0_diff} wkvth0={0+sky130_fd_pr__nfet_01v8_lvt__wkvth0_diff} pkvth0=0.0 llodvth=0.0 wlodvth=1.0 stk2=0.0 lodk2=1.0 lodeta0=1.0 ku0={0+sky130_fd_pr__nfet_01v8_lvt__ku0_diff} lku0={0+sky130_fd_pr__nfet_01v8_lvt__lku0_diff} wku0={0+sky130_fd_pr__nfet_01v8_lvt__wku0_diff} pku0=0.0 llodku0=0.0 wlodku0=1.0 kvsat={0+sky130_fd_pr__nfet_01v8_lvt__kvsat_diff} steta0=0.0 tku0=0.0
Original line no.: 0, new internal line no.: 12354:
Cannot compute substitute
Original line no.: 0, new internal line no.: 12355:
Undefined number [l]
Original line no.: 0, new internal line no.: 12355:
 Expression err: l*w*mult)))} dtox=0.0 ndep=1.7000000000000000e+17 nsd=1.0e+20 rshg=0.1 rsh=1.0 vth0={2.499593467e-01+mc_mm_switch*agauss(0,1.0,1)*(sky130_fd_pr__nfet_01v8_lvt__vth0_slope2/sqrt(l*w*mult))} lvth0=-1.985141613e-9 k1=1.011211867e+00 lk1=-4.876429661e-8 k2=-2.173785925e-01 lk2=1.735522364e-8 k3=1.65 dvt0=0.07665 dvt1=0.1252 dvt2=-0.05637 dvt0w=0.0 dvt1w=5300000.0 dvt2w=-0.032 w0=1.0e-7 k3b=1.6 vfb=0.0 phin=0.0 lpe0=2.3802e-7 lpeb=-4.9152e-8 vbm=-3.0 dvtp0=0.0 dvtp1=0.0 vsat=1.819855190e+05 lvsat=-1.786254255e-3 ua=-3.496851673e-09 lua=1.729222682e-16 ub=4.579415850e-18 lub=-2.719028563e-25 uc=1.863698448e-10 luc=-2.261771620e-17 rdsw=103.65 prwb=0.0 prwg=0.0 wr=1.0 u0=1.421071555e-02 lu0=2.166698265e-10 a0=0.0 keta=1.569286063e-01 lketa=-4.276737498e-8 a1=0.0 a2=0.38689047 ags=1.005218833e+00 lags=3.096873294e-8 b0=0.0 b1=0.0 eu=1.67 rdswmin=0.0 rdw=0.0 rdwmin=0.0 rsw=0.0 rswmin=0.0 voff={-1.193483187e-01+mc_mm_switch*agauss(0,1.0,1)*(sky130_fd_pr__nfet_01v8_lvt__voff_slope/sqrt(l*w*mult))} lvoff=5.296050099e-9 nfactor={7.234594002e-01+mc_mm_switch*agauss(0,1.0,1)*(sky130_fd_pr__nfet_01v8_lvt__nfactor_slope/sqrt(l*w*mult))} lnfactor=3.583940752e-7 up=0.0 ud=0.0 lp=1.0 tvfbsdoff=0.0 tvoff=0.0 cit=5.0e-6 cdsc=3.8556e-37 cdscb=-0.00011484 cdscd=4.7984e-6 eta0=6.763735176e-02 leta0=1.529144370e-9 etab=-7.707727382e-02 letab=9.707882638e-9 dsub=5.818051642e-01 ldsub=-4.053136044e-8 voffl=0.0 minv=0.0 pclm=8.682441667e-02 lpclm=9.591795721e-9 pdiblc1=3.583688214e+00 lpdiblc1=-4.029261770e-7 pdiblc2=6.473580283e-02 lpdiblc2=-7.957785852e-9 pdiblcb=0.0 drout=3.4946 pscbe1=450000000.0 pscbe2=1.0e-8 pvag=0.0 delta=0.01 alpha0=1.687407636e-03 lalpha0=-1.627859335e-10 alpha1=0.0 beta0=3.124083183e+01 lbeta0=-3.496153888e-7 fprout=0.0 pdits=1.4427e-15 pditsl=0.0 pditsd=0.0 agidl=0.0 bgidl=2300000000.0 cgidl=0.5 egidl=0.8 aigbacc=1.0 bigbacc=0.0 cigbacc=0.0 nigbacc=1.0 aigbinv=0.35 bigbinv=0.03 cigbinv=0.006 eigbinv=1.1 nigbinv=3.0 aigc=0.43 bigc=0.054 cigc=0.075 nigc=1.0 aigsd=0.43 bigsd=0.054 cigsd=0.075 dlcig=0.0 poxedge=1.0 pigcd=1.0 ntox=1.0 toxref=4.148e-9 kt1=-2.951193167e-01 lkt1=-2.874265066e-9 kt2=2.122778000e-02 lkt2=-5.743292291e-9 at=6.394335000e+04 lat=2.494521618e-3 ute=-2.841387833e+00 lute=1.462012276e-7 ua1=-2.429022070e-09 lua1=3.816539507e-16 wua1=9.860761315e-32 pua1=1.293043786e-37 ub1=2.444379600e-18 lub1=-4.000662701e-25 wub1=1.469367939e-39 pub1=-8.758115402e-47 uc1=5.214877500e-12 luc1=-5.195283211e-19 kt1l=0.0 prt=0.0 xrcrg1=12.0 xrcrg2=1.0 rbpb=50.0 rbpd=50.0 rbps=50.0 rbdb=50.0 rbsb=50.0 gbmin=1.0e-12 noia=9.0e+41 noib=1.0e+27 noic=800000000000.0 em=41000000.0 af=1.0 ef=1.2 kf=0.0 ntnoi=1.0 dmcg=0.0 dmcgt=0.0 dmdg=0.0 xgw=0.0 xgl=0.0 ngcon=1.0 diomod=1.0 njs=1.2928 jss=0.00275 jsws=6.0e-10 xtis=2.0 bvs=11.9 xjbvs=1.0 ijthsrev=0.1 ijthsfwd=0.1 tpb=0.0012287 tpbsw=0.0 tpbswg=0.0 tcj=0.000792 tcjsw=1.0e-5 tcjswg=0.0 cgdo=2.392894381e-10 cgso=2.392894381e-10 cgbo=1.0e-14 capmod=2.0 xpart=0.0 cgsl=2.310725e-11 cgdl=2.310725e-11 cf=1.0e-14 clc=1.0e-7 cle=0.6 dlc=1.21071e-8 dwc=2.6e-8 vfbcv=-1.0 acde=0.38008 moin=23.81 noff=3.8661 voffcv=-0.16994 ngate=1.0e+23 lwc=0.0 llc=0.0 lwlc=0.0 wlc=0.0 wwc=0.0 wwlc=0.0 ckappas=0.6 cjs=0.0012094836 mjs=0.42197 pbs=0.7477 cjsws=3.230311424e-11 mjsws=0.001 pbsws=0.1 cjswgs=1.795291232e-10 mjswgs=0.8 pbswgs=0.79644 saref=1.04e-6 sbref=1.04e-6 wlod={0+sky130_fd_pr__nfet_01v8_lvt__wlod_diff} kvth0={0+sky130_fd_pr__nfet_01v8_lvt__kvth0_diff} lkvth0={0+sky130_fd_pr__nfet_01v8_lvt__lkvth0_diff} wkvth0={0+sky130_fd_pr__nfet_01v8_lvt__wkvth0_diff} pkvth0=0.0 llodvth=0.0 wlodvth=1.0 stk2=0.0 lodk2=1.0 lodeta0=1.0 ku0={0+sky130_fd_pr__nfet_01v8_lvt__ku0_diff} lku0={0+sky130_fd_pr__nfet_01v8_lvt__lku0_diff} wku0={0+sky130_fd_pr__nfet_01v8_lvt__wku0_diff} pku0=0.0 llodku0=0.0 wlodku0=1.0 kvsat={0+sky130_fd_pr__nfet_01v8_lvt__kvsat_diff} steta0=0.0 tku0=0.0
Original line no.: 0, new internal line no.: 12355:
Cannot compute substitute
Original line no.: 0, new internal line no.: 12356:
Undefined number [l]
Original line no.: 0, new internal line no.: 12356:
 Expression err: l*w*mult)))} dtox=0.0 ndep=1.7000000000000000e+17 nsd=1.0e+20 rshg=0.1 rsh=1.0 vth0={3.906886357e-01+mc_mm_switch*agauss(0,1.0,1)*(sky130_fd_pr__nfet_01v8_lvt__vth0_slope/sqrt(l*w*mult))} wvth0=1.891201432e-7 k1=6.562101846e-01 wk1=-1.278989123e-6 k2=-9.669357138e-02 wk2=4.405835979e-7 k3=1.65 dvt0=0.07665 dvt1=0.1252 dvt2=-0.05637 dvt0w=0.0 dvt1w=5300000.0 dvt2w=-0.032 w0=1.0e-7 k3b=1.6 vfb=0.0 phin=0.0 lpe0=2.3802e-7 lpeb=-4.9152e-8 vbm=-3.0 dvtp0=0.0 dvtp1=0.0 vsat=-4.854532308e+04 wvsat=1.456893625e+0 ua=-1.393438690e-09 wua=6.383717507e-16 ub=2.712905292e-18 wub=-2.598224910e-25 uc=6.941127077e-11 wuc=5.146586695e-18 rdsw=103.65 prwb=0.0 prwg=0.0 wr=1.0 u0=3.093771351e-02 wu0=7.299961309e-9 a0=2.049725856e+00 wa0=-6.244928844e-7 keta=0.0 a1=0.0 a2=0.38689047 ags=4.914641225e-01 wags=2.802022619e-7 b0=0.0 b1=0.0 eu=1.67 rdswmin=0.0 rdw=0.0 rdwmin=0.0 rsw=0.0 rswmin=0.0 voff={-1.071302200e-01+mc_mm_switch*agauss(0,1.0,1)*(sky130_fd_pr__nfet_01v8_lvt__voff_slope/sqrt(l*w*mult))} wvoff=-5.884240377e-8 nfactor={1.307936122e+00+mc_mm_switch*agauss(0,1.0,1)*(sky130_fd_pr__nfet_01v8_lvt__nfactor_slope/sqrt(l*w*mult))} wnfactor=-1.431484089e-6 up=0.0 ud=0.0 lp=1.0 tvfbsdoff=0.0 tvoff=0.0 cit=1.0e-5 cdsc=3.8556e-37 cdscb=-0.00011484 cdscd=4.7984e-6 eta0=0.08 etab=-0.07 dsub=0.56 voffl=0.0 minv=0.0 pclm=5.371830215e-01 wpclm=-2.342747634e-6 pdiblc1=0.39 pdiblc2=2.115864615e-04 wpdiblc2=3.186431687e-8 pdiblcb=0.0 drout=3.4946 pscbe1=450000000.0 pscbe2=1.0e-8 pvag=0.0 delta=0.01 alpha0=2.139238281e-04 walpha0=-9.003091326e-10 alpha1=0.0 beta0=1.854481110e+01 wbeta0=-5.015268597e-6 fprout=0.0 pdits=1.4427e-15 pditsl=0.0 pditsd=0.0 agidl=0.0 bgidl=2300000000.0 cgidl=0.5 egidl=0.8 aigbacc=1.0 bigbacc=0.0 cigbacc=0.0 nigbacc=1.0 aigbinv=0.35 bigbinv=0.03 cigbinv=0.006 eigbinv=1.1 nigbinv=3.0 aigc=0.43 bigc=0.054 cigc=0.075 nigc=1.0 aigsd=0.43 bigsd=0.054 cigsd=0.075 dlcig=0.0 poxedge=1.0 pigcd=1.0 ntox=1.0 toxref=4.148e-9 kt1=-2.526404000e-01 wkt1=-6.945220800e-9 kt2=-3.373865846e-02 wkt2=-4.754805009e-9 at=1.012256938e+06 wat=-4.718921368e+0 ute=-7.721812308e-01 wute=-2.122744409e-6 ua1=2.059472308e-09 wua1=4.327406806e-15 ub1=-3.164587692e-19 wub1=-1.477729287e-23 uc1=6.536615385e-13 wuc1=-1.381030444e-16 kt1l=0.0 prt=0.0 xrcrg1=12.0 xrcrg2=1.0 rbpb=50.0 rbpd=50.0 rbps=50.0 rbdb=50.0 rbsb=50.0 gbmin=1.0e-12 noia=9.0e+41 noib=1.0e+27 noic=800000000000.0 em=41000000.0 af=1.0 ef=1.2 kf=0.0 ntnoi=1.0 dmcg=0.0 dmcgt=0.0 dmdg=0.0 xgw=0.0 xgl=0.0 ngcon=1.0 diomod=1.0 njs=1.2928 jss=0.00275 jsws=6.0e-10 xtis=2.0 bvs=11.9 xjbvs=1.0 ijthsrev=0.1 ijthsfwd=0.1 tpb=0.0012287 tpbsw=0.0 tpbswg=0.0 tcj=0.000792 tcjsw=1.0e-5 tcjswg=0.0 cgdo=2.392894381e-10 cgso=2.392894381e-10 cgbo=1.0e-14 capmod=2.0 xpart=0.0 cgsl=2.310725e-11 cgdl=2.310725e-11 cf=1.0e-14 clc=1.0e-7 cle=0.6 dlc=1.21071e-8 dwc=2.6e-8 vfbcv=-1.0 acde=0.38008 moin=23.81 noff=3.8661 voffcv=-0.16994 ngate=1.0e+23 lwc=0.0 llc=0.0 lwlc=0.0 wlc=0.0 wwc=0.0 wwlc=0.0 ckappas=0.6 cjs=0.0012094836 mjs=0.42197 pbs=0.7477 cjsws=3.230311424e-11 mjsws=0.001 pbsws=0.1 cjswgs=1.795291232e-10 mjswgs=0.8 pbswgs=0.79644 saref=3.0e-6 sbref=3.0e-6 wlod={0+sky130_fd_pr__nfet_01v8_lvt__wlod_diff} kvth0={0+sky130_fd_pr__nfet_01v8_lvt__kvth0_diff} lkvth0={0+sky130_fd_pr__nfet_01v8_lvt__lkvth0_diff} wkvth0={0+sky130_fd_pr__nfet_01v8_lvt__wkvth0_diff} pkvth0=0.0 llodvth=0.0 wlodvth=1.0 stk2=0.0 lodk2=1.0 lodeta0=1.0 ku0={0+sky130_fd_pr__nfet_01v8_lvt__ku0_diff} lku0={0+sky130_fd_pr__nfet_01v8_lvt__lku0_diff} wku0={0+sky130_fd_pr__nfet_01v8_lvt__wku0_diff} pku0=0.0 llodku0=0.0 wlodku0=1.0 kvsat={0+sky130_fd_pr__nfet_01v8_lvt__kvsat_diff} steta0=0.0 tku0=0.0
Original line no.: 0, new internal line no.: 12356:
Cannot compute substitute
Original line no.: 0, new internal line no.: 12357:
Undefined number [l]
Original line no.: 0, new internal line no.: 12357:
 Expression err: l*w*mult)))} dtox=0.0 ndep=1.7000000000000000e+17 nsd=1.0e+20 rshg=0.1 rsh=1.0 vth0={3.906886357e-01+mc_mm_switch*agauss(0,1.0,1)*(sky130_fd_pr__nfet_01v8_lvt__vth0_slope/sqrt(l*w*mult))} wvth0=1.891201432e-7 k1=6.562101846e-01 wk1=-1.278989123e-6 k2=-9.669357138e-02 wk2=4.405835979e-7 k3=1.65 dvt0=0.07665 dvt1=0.1252 dvt2=-0.05637 dvt0w=0.0 dvt1w=5300000.0 dvt2w=-0.032 w0=1.0e-7 k3b=1.6 vfb=0.0 phin=0.0 lpe0=2.3802e-7 lpeb=-4.9152e-8 vbm=-3.0 dvtp0=0.0 dvtp1=0.0 vsat=-4.854532308e+04 wvsat=1.456893625e+0 ua=-1.393438690e-09 wua=6.383717507e-16 ub=2.712905292e-18 wub=-2.598224910e-25 uc=6.941127077e-11 wuc=5.146586695e-18 rdsw=103.65 prwb=0.0 prwg=0.0 wr=1.0 u0=3.093771351e-02 wu0=7.299961309e-9 a0=2.049725856e+00 wa0=-6.244928844e-7 keta=0.0 a1=0.0 a2=0.38689047 ags=4.914641225e-01 wags=2.802022619e-7 b0=0.0 b1=0.0 eu=1.67 rdswmin=0.0 rdw=0.0 rdwmin=0.0 rsw=0.0 rswmin=0.0 voff={-1.071302200e-01+mc_mm_switch*agauss(0,1.0,1)*(sky130_fd_pr__nfet_01v8_lvt__voff_slope/sqrt(l*w*mult))} wvoff=-5.884240377e-8 nfactor={1.307936122e+00+mc_mm_switch*agauss(0,1.0,1)*(sky130_fd_pr__nfet_01v8_lvt__nfactor_slope/sqrt(l*w*mult))} wnfactor=-1.431484089e-6 up=0.0 ud=0.0 lp=1.0 tvfbsdoff=0.0 tvoff=0.0 cit=1.0e-5 cdsc=3.8556e-37 cdscb=-0.00011484 cdscd=4.7984e-6 eta0=0.08 etab=-0.07 dsub=0.56 voffl=0.0 minv=0.0 pclm=5.371830215e-01 wpclm=-2.342747634e-6 pdiblc1=0.39 pdiblc2=2.115864615e-04 wpdiblc2=3.186431687e-8 pdiblcb=0.0 drout=3.4946 pscbe1=450000000.0 pscbe2=1.0e-8 pvag=0.0 delta=0.01 alpha0=2.139238281e-04 walpha0=-9.003091326e-10 alpha1=0.0 beta0=1.854481110e+01 wbeta0=-5.015268597e-6 fprout=0.0 pdits=1.4427e-15 pditsl=0.0 pditsd=0.0 agidl=0.0 bgidl=2300000000.0 cgidl=0.5 egidl=0.8 aigbacc=1.0 bigbacc=0.0 cigbacc=0.0 nigbacc=1.0 aigbinv=0.35 bigbinv=0.03 cigbinv=0.006 eigbinv=1.1 nigbinv=3.0 aigc=0.43 bigc=0.054 cigc=0.075 nigc=1.0 aigsd=0.43 bigsd=0.054 cigsd=0.075 dlcig=0.0 poxedge=1.0 pigcd=1.0 ntox=1.0 toxref=4.148e-9 kt1=-2.526404000e-01 wkt1=-6.945220800e-9 kt2=-3.373865846e-02 wkt2=-4.754805009e-9 at=1.012256938e+06 wat=-4.718921368e+0 ute=-7.721812308e-01 wute=-2.122744409e-6 ua1=2.059472308e-09 wua1=4.327406806e-15 ub1=-3.164587692e-19 wub1=-1.477729287e-23 uc1=6.536615385e-13 wuc1=-1.381030444e-16 kt1l=0.0 prt=0.0 xrcrg1=12.0 xrcrg2=1.0 rbpb=50.0 rbpd=50.0 rbps=50.0 rbdb=50.0 rbsb=50.0 gbmin=1.0e-12 noia=9.0e+41 noib=1.0e+27 noic=800000000000.0 em=41000000.0 af=1.0 ef=1.2 kf=0.0 ntnoi=1.0 dmcg=0.0 dmcgt=0.0 dmdg=0.0 xgw=0.0 xgl=0.0 ngcon=1.0 diomod=1.0 njs=1.2928 jss=0.00275 jsws=6.0e-10 xtis=2.0 bvs=11.9 xjbvs=1.0 ijthsrev=0.1 ijthsfwd=0.1 tpb=0.0012287 tpbsw=0.0 tpbswg=0.0 tcj=0.000792 tcjsw=1.0e-5 tcjswg=0.0 cgdo=2.392894381e-10 cgso=2.392894381e-10 cgbo=1.0e-14 capmod=2.0 xpart=0.0 cgsl=2.310725e-11 cgdl=2.310725e-11 cf=1.0e-14 clc=1.0e-7 cle=0.6 dlc=1.21071e-8 dwc=2.6e-8 vfbcv=-1.0 acde=0.38008 moin=23.81 noff=3.8661 voffcv=-0.16994 ngate=1.0e+23 lwc=0.0 llc=0.0 lwlc=0.0 wlc=0.0 wwc=0.0 wwlc=0.0 ckappas=0.6 cjs=0.0012094836 mjs=0.42197 pbs=0.7477 cjsws=3.230311424e-11 mjsws=0.001 pbsws=0.1 cjswgs=1.795291232e-10 mjswgs=0.8 pbswgs=0.79644 saref=3.0e-6 sbref=3.0e-6 wlod={0+sky130_fd_pr__nfet_01v8_lvt__wlod_diff} kvth0={0+sky130_fd_pr__nfet_01v8_lvt__kvth0_diff} lkvth0={0+sky130_fd_pr__nfet_01v8_lvt__lkvth0_diff} wkvth0={0+sky130_fd_pr__nfet_01v8_lvt__wkvth0_diff} pkvth0=0.0 llodvth=0.0 wlodvth=1.0 stk2=0.0 lodk2=1.0 lodeta0=1.0 ku0={0+sky130_fd_pr__nfet_01v8_lvt__ku0_diff} lku0={0+sky130_fd_pr__nfet_01v8_lvt__lku0_diff} wku0={0+sky130_fd_pr__nfet_01v8_lvt__wku0_diff} pku0=0.0 llodku0=0.0 wlodku0=1.0 kvsat={0+sky130_fd_pr__nfet_01v8_lvt__kvsat_diff} steta0=0.0 tku0=0.0
Original line no.: 0, new internal line no.: 12357:
Cannot compute substitute
Original line no.: 0, new internal line no.: 12358:
Undefined number [l]
Original line no.: 0, new internal line no.: 12358:
 Expression err: l*w*mult)))} dtox=0.0 ndep=1.7000000000000000e+17 nsd=1.0e+20 rshg=0.1 rsh=1.0 vth0={3.387074751e-01+mc_mm_switch*agauss(0,1.0,1)*(sky130_fd_pr__nfet_01v8_lvt__vth0_slope/sqrt(l*w*mult))} lvth0=2.066744953e-07 wvth0=4.577215666e-07 pvth0=-1.067945829e-12 k1=1.043658291e+00 lk1=-1.540474298e-06 wk1=-3.684456410e-06 pk1=9.564017660e-12 k2=-2.346599121e-01 lk2=5.485472722e-07 wk2=1.296373785e-06 pk2=-3.402578993e-12 k3=1.65 dvt0=0.07665 dvt1=0.1252 dvt2=-0.05637 dvt0w=0.0 dvt1w=5300000.0 dvt2w=-0.032 w0=1.0e-7 k3b=1.6 vfb=0.0 phin=0.0 lpe0=2.3802e-7 lpeb=-4.9152e-8 vbm=-3.0 dvtp0=0.0 dvtp1=0.0 vsat=-1.335375596e+05 lvsat=3.379248828e-01 wvsat=2.841286497e+00 pvsat=-5.504276840e-6 ua=-1.628156003e-09 lua=9.332242992e-16 wua=1.742281014e-15 pua=-4.389088037e-21 ub=2.607033192e-18 lub=4.209421767e-25 wub=3.526286227e-25 pub=-2.435075005e-30 uc=1.251089846e-10 luc=-2.214513252e-16 wuc=-4.010135385e-16 puc=1.614872350e-21 rdsw=103.65 prwb=0.0 prwg=0.0 wr=1.0 u0=2.453968505e-02 lu0=2.543824125e-08 wu0=3.708873192e-08 pu0=-1.184386625e-13 a0=1.998634175e+00 la0=2.031379692e-07 wa0=-3.473926242e-07 pa0=-1.101736780e-12 keta=1.026209329e-01 lketa=-4.080156980e-07 wketa=5.536867724e-07 pketa=-2.201430923e-12 a1=0.0 a2=0.38689047 ags=-6.735004679e-01 lags=4.631840963e-06 wags=1.892533921e-06 pags=-6.410550058e-12 b0=0.0 b1=0.0 eu=1.67 rdswmin=0.0 rdw=0.0 rdwmin=0.0 rsw=0.0 rswmin=0.0 voff={-8.695778636e-02+mc_mm_switch*agauss(0,1.0,1)*(sky130_fd_pr__nfet_01v8_lvt__voff_slope/sqrt(l*w*mult))} lvoff=-8.020458739e-08 wvoff=-1.969591909e-07 pvoff=5.491454397e-13 nfactor={1.764527776e+00+mc_mm_switch*agauss(0,1.0,1)*(sky130_fd_pr__nfet_01v8_lvt__nfactor_slope/sqrt(l*w*mult))} lnfactor=-1.815385585e-06 wnfactor=-6.286089894e-06 pnfactor=1.930166995e-11 up=0.0 ud=0.0 lp=1.0 tvfbsdoff=0.0 tvoff=0.0 cit=-2.661279615e-06 lcit=5.034061469e-11 wcit=8.797057077e-11 pcit=-3.497665908e-16 cdsc=3.8556e-37 cdscb=-0.00011484 cdscd=4.7984e-6 eta0=1.585440125e-01 leta0=-3.122870665e-7 etab=-1.386642625e-01 letab=2.730056745e-7 dsub=1.184116408e+00 ldsub=-2.481455632e-06 wdsub=-2.434726299e-06 pdsub=9.680350028e-12 voffl=0.0 minv=0.0 pclm=3.827566924e-01 lpclm=6.139913634e-07 wpclm=-1.476413453e-06 ppclm=-3.444501387e-12 pdiblc1=0.39 pdiblc2=-7.933641797e-03 lpdiblc2=3.238502030e-08 wpdiblc2=6.172856623e-08 ppdiblc2=-1.187387623e-13 pdiblcb=0.0 drout=3.4946 pscbe1=450000000.0 pscbe2=1.0e-8 pvag=0.0 delta=0.01 alpha0=3.094116620e-04 lalpha0=-3.796548533e-10 walpha0=-1.848180051e-09 palpha0=3.768687378e-15 alpha1=0.0 beta0=1.587877845e+01 lbeta0=1.060001253e-05 wbeta0=-1.033618616e-05 pbeta0=2.115570220e-11 fprout=0.0 pdits=1.4427e-15 pditsl=0.0 pditsd=0.0 agidl=0.0 bgidl=2300000000.0 cgidl=0.5 egidl=0.8 aigbacc=1.0 bigbacc=0.0 cigbacc=0.0 nigbacc=1.0 aigbinv=0.35 bigbinv=0.03 cigbinv=0.006 eigbinv=1.1 nigbinv=3.0 aigc=0.43 bigc=0.054 cigc=0.075 nigc=1.0 aigsd=0.43 bigsd=0.054 cigsd=0.075 dlcig=0.0 poxedge=1.0 pigcd=1.0 ntox=1.0 toxref=4.148e-9 kt1=-2.794415474e-01 lkt1=1.065600221e-07 wkt1=1.792005069e-07 pkt1=-7.401061062e-13 kt2=-1.800388894e-02 lkt2=-6.256065688e-08 wkt2=-1.468096827e-07 pkt2=5.648030909e-13 at=1.978932325e+06 lat=-3.843453004e+00 wat=-9.501652578e+00 pat=1.901590015e-5 ute=-5.425074425e-01 lute=-9.131714985e-07 wute=-3.090420687e-06 pute=3.847432499e-12 ua1=-6.951433487e-10 lua1=1.095221412e-14 wua1=1.955511261e-14 pua1=-6.054459688e-20 ub1=5.349391812e-18 lub1=-2.252713862e-23 wub1=-4.505852274e-23 pub1=1.203966559e-28 uc1=2.359887021e-11 luc1=-9.122900240e-17 wuc1=-1.909557633e-16 puc1=2.101397678e-22 kt1l=0.0 prt=0.0 xrcrg1=12.0 xrcrg2=1.0 rbpb=50.0 rbpd=50.0 rbps=50.0 rbdb=50.0 rbsb=50.0 gbmin=1.0e-12 noia=9.0e+41 noib=1.0e+27 noic=800000000000.0 em=41000000.0 af=1.0 ef=1.2 kf=0.0 ntnoi=1.0 dmcg=0.0 dmcgt=0.0 dmdg=0.0 xgw=0.0 xgl=0.0 ngcon=1.0 diomod=1.0 njs=1.2928 jss=0.00275 jsws=6.0e-10 xtis=2.0 bvs=11.9 xjbvs=1.0 ijthsrev=0.1 ijthsfwd=0.1 tpb=0.0012287 tpbsw=0.0 tpbswg=0.0 tcj=0.000792 tcjsw=1.0e-5 tcjswg=0.0 cgdo=2.392894381e-10 cgso=2.392894381e-10 cgbo=1.0e-14 capmod=2.0 xpart=0.0 cgsl=2.310725e-11 cgdl=2.310725e-11 cf=1.0e-14 clc=1.0e-7 cle=0.6 dlc=1.21071e-8 dwc=2.6e-8 vfbcv=-1.0 acde=0.38008 moin=23.81 noff=3.8661 voffcv=-0.16994 ngate=1.0e+23 lwc=0.0 llc=0.0 lwlc=0.0 wlc=0.0 wwc=0.0 wwlc=0.0 ckappas=0.6 cjs=0.0012094836 mjs=0.42197 pbs=0.7477 cjsws=3.230311424e-11 mjsws=0.001 pbsws=0.1 cjswgs=1.795291232e-10 mjswgs=0.8 pbswgs=0.79644 saref=3.0e-6 sbref=3.0e-6 wlod={0+sky130_fd_pr__nfet_01v8_lvt__wlod_diff} kvth0={0+sky130_fd_pr__nfet_01v8_lvt__kvth0_diff} lkvth0={0+sky130_fd_pr__nfet_01v8_lvt__lkvth0_diff} wkvth0={0+sky130_fd_pr__nfet_01v8_lvt__wkvth0_diff} pkvth0=0.0 llodvth=0.0 wlodvth=1.0 stk2=0.0 lodk2=1.0 lodeta0=1.0 ku0={0+sky130_fd_pr__nfet_01v8_lvt__ku0_diff} lku0={0+sky130_fd_pr__nfet_01v8_lvt__lku0_diff} wku0={0+sky130_fd_pr__nfet_01v8_lvt__wku0_diff} pku0=0.0 llodku0=0.0 wlodku0=1.0 kvsat={0+sky130_fd_pr__nfet_01v8_lvt__kvsat_diff} steta0=0.0 tku0=0.0
Original line no.: 0, new internal line no.: 12358:
Cannot compute substitute
Original line no.: 0, new internal line no.: 12359:
Undefined number [l]
Original line no.: 0, new internal line no.: 12359:
 Expression err: l*w*mult)))} dtox=0.0 ndep=1.7000000000000000e+17 nsd=1.0e+20 rshg=0.1 rsh=1.0 vth0={4.501238099e-01+mc_mm_switch*agauss(0,1.0,1)*(sky130_fd_pr__nfet_01v8_lvt__vth0_slope/sqrt(l*w*mult))} lvth0=-1.347861141e-08 wvth0=-1.526741411e-07 pvth0=1.381655692e-13 k1=1.098075300e-01 lk1=3.047681127e-07 wk1=2.217845931e-06 pk1=-2.098636651e-12 k2=1.011602926e-01 lk2=-1.150166613e-07 wk2=-8.019477308e-07 pk2=7.435994056e-13 k3=1.65 dvt0=0.07665 dvt1=0.1252 dvt2=-0.05637 dvt0w=0.0 dvt1w=5300000.0 dvt2w=-0.032 w0=1.0e-7 k3b=1.6 vfb=0.0 phin=0.0 lpe0=2.3802e-7 lpeb=-4.9152e-8 vbm=-3.0 dvtp0=0.0 dvtp1=0.0 vsat=7.224886622e+03 lvsat=5.978532721e-02 wvsat=8.309378008e-02 pvsat=-5.422594129e-8 ua=-8.783334105e-10 lua=-5.483876523e-16 wua=-4.988720921e-16 pua=3.931844360e-23 ub=2.780493269e-18 lub=7.819373686e-26 wub=-1.131042332e-24 pub=4.965846175e-31 uc=-8.467754604e-11 luc=1.930763700e-16 wuc=1.002893735e-15 puc=-1.159178228e-21 rdsw=103.65 prwb=0.0 prwg=0.0 wr=1.0 u0=4.324278166e-02 lu0=-1.151814250e-08 wu0=-3.475127073e-08 pu0=2.351359072e-14 a0=2.503276966e+00 la0=-7.940109526e-07 wa0=-2.172657356e-06 pa0=2.504895068e-12 keta=1.545693683e-01 lketa=-5.106632091e-07 wketa=-2.080825656e-06 pketa=3.004233910e-12 a1=0.0 a2=0.38689047 ags=8.744391799e-01 lags=1.573189616e-06 wags=-3.986882604e-07 pags=-1.883209590e-12 b0=0.0 b1=0.0 eu=1.67 rdswmin=0.0 rdw=0.0 rdwmin=0.0 rsw=0.0 rswmin=0.0 voff={-1.422342947e-01+mc_mm_switch*agauss(0,1.0,1)*(sky130_fd_pr__nfet_01v8_lvt__voff_slope/sqrt(l*w*mult))} lvoff=2.901902929e-08 wvoff=1.748540418e-07 pvoff=-1.855389175e-13 nfactor={-2.134306463e-01+mc_mm_switch*agauss(0,1.0,1)*(sky130_fd_pr__nfet_01v8_lvt__nfactor_slope/sqrt(l*w*mult))} lnfactor=2.092961359e-06 wnfactor=7.966376483e-06 pnfactor=-8.860490989e-12 up=0.0 ud=0.0 lp=1.0 tvfbsdoff=0.0 tvoff=0.0 cit=4.020230923e-05 lcit=-3.435569369e-11 wcit=-1.759411415e-10 pcit=1.717097571e-16 cdsc=3.8556e-37 cdscb=-0.00011484 cdscd=4.7984e-6 eta0=7.564320637e-04 leta0=-5.066969362e-10 weta0=-1.147947008e-09 peta0=2.268285891e-15 etab=-5.889721664e-04 letab=1.758045523e-10 wetab=3.291766289e-10 petab=-6.504365598e-16 dsub=1.838639089e-01 ldsub=-5.050067068e-07 wdsub=-1.635517997e-06 pdsub=8.101154384e-12 voffl=0.0 minv=0.0 pclm=1.250925600e+00 lpclm=-1.101466990e-06 wpclm=-7.098731270e-06 ppclm=7.664917504e-12 pdiblc1=0.39 pdiblc2=1.059719894e-02 lpdiblc2=-4.230994463e-09 wpdiblc2=-2.488699303e-08 ppdiblc2=5.240925206e-14 pdiblcb=0.0 drout=3.4946 pscbe1=450000000.0 pscbe2=1.0e-8 pvag=0.0 delta=0.01 alpha0=1.606289833e-04 lalpha0=-8.566771924e-11 walpha0=1.804088381e-10 palpha0=-2.397028372e-16 alpha1=0.0 beta0=2.068289695e+01 lbeta0=1.107314584e-06 wbeta0=3.571645802e-06 pbeta0=-6.325478373e-12 fprout=0.0 pdits=1.4427e-15 pditsl=0.0 pditsd=0.0 agidl=0.0 bgidl=2300000000.0 cgidl=0.5 egidl=0.8 aigbacc=1.0 bigbacc=0.0 cigbacc=0.0 nigbacc=1.0 aigbinv=0.35 bigbinv=0.03 cigbinv=0.006 eigbinv=1.1 nigbinv=3.0 aigc=0.43 bigc=0.054 cigc=0.075 nigc=1.0 aigsd=0.43 bigsd=0.054 cigsd=0.075 dlcig=0.0 poxedge=1.0 pigcd=1.0 ntox=1.0 toxref=4.148e-9 kt1=-2.145610854e-01 lkt1=-2.164052685e-08 wkt1=-2.509724988e-07 pkt1=1.098942445e-13 kt2=-1.422016137e-01 lkt2=1.828478374e-07 wkt2=6.687531747e-07 pkt2=-1.046708337e-12 at=2.886737031e+01 lat=6.676128345e-02 wat=2.151614454e-01 pat=-1.840385176e-7 ute=-1.405967708e+00 lute=7.929828131e-07 wute=5.668988396e-07 pute=-3.379248019e-12 ua1=3.791858500e-09 lua1=2.086122817e-15 wua1=-3.598349883e-15 pua1=-1.479451267e-20 ub1=-4.764213727e-18 lub1=-2.543159755e-24 wub1=5.946799988e-24 pub1=1.961268845e-29 uc1=1.699225986e-10 luc1=-3.803573735e-16 wuc1=-1.102291170e-15 puc1=2.010892965e-21 kt1l=0.0 prt=0.0 xrcrg1=12.0 xrcrg2=1.0 rbpb=50.0 rbpd=50.0 rbps=50.0 rbdb=50.0 rbsb=50.0 gbmin=1.0e-12 noia=9.0e+41 noib=1.0e+27 noic=800000000000.0 em=41000000.0 af=1.0 ef=1.2 kf=0.0 ntnoi=1.0 dmcg=0.0 dmcgt=0.0 dmdg=0.0 xgw=0.0 xgl=0.0 ngcon=1.0 diomod=1.0 njs=1.2928 jss=0.00275 jsws=6.0e-10 xtis=2.0 bvs=11.9 xjbvs=1.0 ijthsrev=0.1 ijthsfwd=0.1 tpb=0.0012287 tpbsw=0.0 tpbswg=0.0 tcj=0.000792 tcjsw=1.0e-5 tcjswg=0.0 cgdo=2.392894381e-10 cgso=2.392894381e-10 cgbo=1.0e-14 capmod=2.0 xpart=0.0 cgsl=2.310725e-11 cgdl=2.310725e-11 cf=1.0e-14 clc=1.0e-7 cle=0.6 dlc=1.21071e-8 dwc=2.6e-8 vfbcv=-1.0 acde=0.38008 moin=23.81 noff=3.8661 voffcv=-0.16994 ngate=1.0e+23 lwc=0.0 llc=0.0 lwlc=0.0 wlc=0.0 wwc=0.0 wwlc=0.0 ckappas=0.6 cjs=0.0012094836 mjs=0.42197 pbs=0.7477 cjsws=3.230311424e-11 mjsws=0.001 pbsws=0.1 cjswgs=1.795291232e-10 mjswgs=0.8 pbswgs=0.79644 saref=2.74e-6 sbref=2.74e-6 wlod={0+sky130_fd_pr__nfet_01v8_lvt__wlod_diff} kvth0={0+sky130_fd_pr__nfet_01v8_lvt__kvth0_diff} lkvth0={0+sky130_fd_pr__nfet_01v8_lvt__lkvth0_diff} wkvth0={0+sky130_fd_pr__nfet_01v8_lvt__wkvth0_diff} pkvth0=0.0 llodvth=0.0 wlodvth=1.0 stk2=0.0 lodk2=1.0 lodeta0=1.0 ku0={0+sky130_fd_pr__nfet_01v8_lvt__ku0_diff} lku0={0+sky130_fd_pr__nfet_01v8_lvt__lku0_diff} wku0={0+sky130_fd_pr__nfet_01v8_lvt__wku0_diff} pku0=0.0 llodku0=0.0 wlodku0=1.0 kvsat={0+sky130_fd_pr__nfet_01v8_lvt__kvsat_diff} steta0=0.0 tku0=0.0
Original line no.: 0, new internal line no.: 12359:
Cannot compute substitute
Original line no.: 0, new internal line no.: 12360:
Undefined number [l]
Original line no.: 0, new internal line no.: 12360:
 Expression err: l*w*mult)))} dtox=0.0 ndep=1.7000000000000000e+17 nsd=1.0e+20 rshg=0.1 rsh=1.0 vth0={4.424712187e-01+mc_mm_switch*agauss(0,1.0,1)*(sky130_fd_pr__nfet_01v8_lvt__vth0_slope/sqrt(l*w*mult))} lvth0=-6.010065057e-09 wvth0=-6.461078861e-09 pvth0=-4.531068884e-15 k1=4.497027542e-01 lk1=-2.695263127e-08 wk1=-1.104993533e-07 pk1=1.737119296e-13 k2=-1.909791244e-02 lk2=2.349333997e-09 wk2=1.327053315e-08 pk2=-5.201285905e-14 k3=1.65 dvt0=0.07665 dvt1=0.1252 dvt2=-0.05637 dvt0w=0.0 dvt1w=5300000.0 dvt2w=-0.032 w0=1.0e-7 k3b=1.6 vfb=0.0 phin=0.0 lpe0=2.3802e-7 lpeb=-4.9152e-8 vbm=-3.0 dvtp0=0.0 dvtp1=0.0 vsat=1.504710501e+05 lvsat=-8.001576602e-02 wvsat=-9.231153254e-01 pvsat=9.277838352e-7 ua=-6.384869914e-10 lua=-7.824657650e-16 wua=-4.051487472e-15 pua=3.506493423e-21 ub=2.416060118e-18 lub=4.338622712e-25 wub=2.329236668e-24 pub=-2.880474673e-30 uc=1.378981169e-10 luc=-2.414634830e-17 wuc=-2.117386152e-16 puc=2.624221452e-23 rdsw=103.65 prwb=0.0 prwg=0.0 wr=1.0 u0=3.981974313e-02 lu0=-8.177428043e-09 wu0=-3.993379617e-08 pu0=2.857147642e-14 a0=2.170538518e+00 la0=-4.692748649e-07 wa0=-1.041459314e-06 pa0=1.400902338e-12 keta=-6.878723148e-01 lketa=3.115177515e-07 wketa=1.788216956e-06 pketa=-7.717582269e-13 a1=0.0 a2=0.38689047 ags=4.708129977e-01 lags=1.967108588e-06 wags=1.711113702e-05 pags=-1.897192358e-11 b0=0.0 b1=0.0 eu=1.67 rdswmin=0.0 rdw=0.0 rdwmin=0.0 rsw=0.0 rswmin=0.0 voff={-1.108792756e-01+mc_mm_switch*agauss(0,1.0,1)*(sky130_fd_pr__nfet_01v8_lvt__voff_slope/sqrt(l*w*mult))} lvoff=-1.581901611e-09 wvoff=-2.841968880e-08 pvoff=1.284607991e-14 nfactor={1.772922212e+00+mc_mm_switch*agauss(0,1.0,1)*(sky130_fd_pr__nfet_01v8_lvt__nfactor_slope/sqrt(l*w*mult))} lnfactor=1.543802876e-07 wnfactor=-2.959975114e-06 pnfactor=1.803081852e-12 up=0.0 ud=0.0 lp=1.0 tvfbsdoff=0.0 tvoff=0.0 cit=5.0e-6 cdsc=3.8556e-37 cdscb=-0.00011484 cdscd=4.7984e-6 eta0=4.291689863e-04 leta0=-1.873044940e-10 weta0=2.465410829e-09 peta0=-1.258170690e-15 etab=-7.400703663e-04 letab=3.232688405e-10 wetab=-6.477493539e-10 petab=3.029943531e-16 dsub=-1.603029450e+00 ldsub=1.238911867e-06 wdsub=1.300994119e-05 pdsub=-6.192081509e-12 voffl=0.0 minv=0.0 pclm=-5.762763149e-01 lpclm=6.817907193e-07 wpclm=3.717206937e-06 ppclm=-2.890897389e-12 pdiblc1=0.39 pdiblc2=6.682104373e-04 lpdiblc2=5.459201868e-09 wpdiblc2=6.694487395e-08 ppdiblc2=-3.721405852e-14 pdiblcb=0.0 drout=3.4946 pscbe1=450000000.0 pscbe2=1.0e-8 pvag=0.0 delta=0.01 alpha0=-1.076349711e-04 lalpha0=1.761444871e-10 walpha0=5.521897589e-10 palpha0=-6.025424269e-16 alpha1=0.0 beta0=1.830440783e+01 lbeta0=3.428601033e-06 wbeta0=1.781838139e-06 pbeta0=-4.578715585e-12 fprout=0.0 pdits=1.4427e-15 pditsl=0.0 pditsd=0.0 agidl=0.0 bgidl=2300000000.0 cgidl=0.5 egidl=0.8 aigbacc=1.0 bigbacc=0.0 cigbacc=0.0 nigbacc=1.0 aigbinv=0.35 bigbinv=0.03 cigbinv=0.006 eigbinv=1.1 nigbinv=3.0 aigc=0.43 bigc=0.054 cigc=0.075 nigc=1.0 aigsd=0.43 bigsd=0.054 cigsd=0.075 dlcig=0.0 poxedge=1.0 pigcd=1.0 ntox=1.0 toxref=4.148e-9 kt1=-2.182503416e-01 lkt1=-1.803999725e-08 wkt1=-2.253322930e-07 pkt1=8.487068561e-14 kt2=8.950120937e-02 lkt2=-4.328253281e-08 wkt2=-6.311386879e-07 pkt2=2.219211261e-13 at=1.148750153e+04 lat=5.557822944e-02 wat=4.229688921e-01 pat=-3.868481952e-7 ute=-2.623470978e-01 lute=-3.231337214e-07 wute=-5.160367438e-06 pute=2.210277504e-12 ua1=9.336718781e-09 lua1=-3.325383575e-15 wua1=-3.687200520e-14 pua1=1.767891124e-20 ub1=-1.212596015e-17 lub1=4.641536672e-24 wub1=5.169069087e-23 pub1=-2.503106186e-29 uc1=-5.217161532e-10 luc1=2.946474663e-16 wuc1=2.457369007e-15 puc1=-1.463157385e-21 kt1l=0.0 prt=0.0 xrcrg1=12.0 xrcrg2=1.0 rbpb=50.0 rbpd=50.0 rbps=50.0 rbdb=50.0 rbsb=50.0 gbmin=1.0e-12 noia=9.0e+41 noib=1.0e+27 noic=800000000000.0 em=41000000.0 af=1.0 ef=1.2 kf=0.0 ntnoi=1.0 dmcg=0.0 dmcgt=0.0 dmdg=0.0 xgw=0.0 xgl=0.0 ngcon=1.0 diomod=1.0 njs=1.2928 jss=0.00275 jsws=6.0e-10 xtis=2.0 bvs=11.9 xjbvs=1.0 ijthsrev=0.1 ijthsfwd=0.1 tpb=0.0012287 tpbsw=0.0 tpbswg=0.0 tcj=0.000792 tcjsw=1.0e-5 tcjswg=0.0 cgdo=2.392894381e-10 cgso=2.392894381e-10 cgbo=1.0e-14 capmod=2.0 xpart=0.0 cgsl=2.310725e-11 cgdl=2.310725e-11 cf=1.0e-14 clc=1.0e-7 cle=0.6 dlc=1.21071e-8 dwc=2.6e-8 vfbcv=-1.0 acde=0.38008 moin=23.81 noff=3.8661 voffcv=-0.16994 ngate=1.0e+23 lwc=0.0 llc=0.0 lwlc=0.0 wlc=0.0 wwc=0.0 wwlc=0.0 ckappas=0.6 cjs=0.0012094836 mjs=0.42197 pbs=0.7477 cjsws=3.230311424e-11 mjsws=0.001 pbsws=0.1 cjswgs=1.795291232e-10 mjswgs=0.8 pbswgs=0.79644 saref=1.74e-6 sbref=1.74e-6 wlod={0+sky130_fd_pr__nfet_01v8_lvt__wlod_diff} kvth0={0+sky130_fd_pr__nfet_01v8_lvt__kvth0_diff} lkvth0={0+sky130_fd_pr__nfet_01v8_lvt__lkvth0_diff} wkvth0={0+sky130_fd_pr__nfet_01v8_lvt__wkvth0_diff} pkvth0=0.0 llodvth=0.0 wlodvth=1.0 stk2=0.0 lodk2=1.0 lodeta0=1.0 ku0={0+sky130_fd_pr__nfet_01v8_lvt__ku0_diff} lku0={0+sky130_fd_pr__nfet_01v8_lvt__lku0_diff} wku0={0+sky130_fd_pr__nfet_01v8_lvt__wku0_diff} pku0=0.0 llodku0=0.0 wlodku0=1.0 kvsat={0+sky130_fd_pr__nfet_01v8_lvt__kvsat_diff} steta0=0.0 tku0=0.0
Original line no.: 0, new internal line no.: 12360:
Cannot compute substitute
Original line no.: 0, new internal line no.: 12361:
Undefined number [l]
Original line no.: 0, new internal line no.: 12361:
 Expression err: l*w*mult)))} dtox=0.0 ndep=1.7000000000000000e+17 nsd=1.0e+20 rshg=0.1 rsh=1.0 vth0={5.046381253e-01+mc_mm_switch*agauss(0,1.0,1)*(sky130_fd_pr__nfet_01v8_lvt__vth0_slope/sqrt(l*w*mult))} lvth0=-3.559840423e-08 wvth0=-6.303355817e-08 pvth0=2.239460264e-14 k1=2.736310936e-01 lk1=5.684867557e-08 wk1=1.411704813e-07 pk1=5.392967182e-14 k2=2.513163981e-02 lk2=-1.870172140e-08 wk2=-7.651549795e-08 pk2=-9.279197553e-15 k3=1.65 dvt0=0.07665 dvt1=0.1252 dvt2=-0.05637 dvt0w=0.0 dvt1w=5300000.0 dvt2w=-0.032 w0=1.0e-7 k3b=1.6 vfb=0.0 phin=0.0 lpe0=2.3802e-7 lpeb=-4.9152e-8 vbm=-3.0 dvtp0=0.0 dvtp1=0.0 vsat=-1.952846699e+05 lvsat=8.454666889e-02 wvsat=2.042060687e+00 pvsat=-4.834916880e-7 ua=-2.029160092e-09 lua=-1.205749030e-16 wua=2.386783217e-15 pua=4.421984890e-22 ub=3.206404926e-18 lub=5.769765971e-26 wub=-2.706088712e-24 pub=-4.839115581e-31 uc=1.347648575e-10 luc=-2.265507346e-17 wuc=-4.225078371e-16 puc=1.265578257e-22 rdsw=103.65 prwb=0.0 prwg=0.0 wr=1.0 u0=2.660475222e-02 lu0=-1.887753122e-09 wu0=8.692272785e-09 pu0=5.427898902e-15 a0=4.105362724e-01 la0=3.683982041e-07 wa0=6.307151968e-06 pa0=-2.096669201e-12 keta=-1.305217443e-01 lketa=4.624674752e-08 wketa=8.121829703e-07 pketa=-3.072148516e-13 a1=0.0 a2=0.38689047 ags=8.764768139e+00 lags=-1.980399361e-06 wags=-4.331151164e-05 pags=9.786236055e-12 b0=0.0 b1=0.0 eu=1.67 rdswmin=0.0 rdw=0.0 rdwmin=0.0 rsw=0.0 rswmin=0.0 voff={-1.231742978e-01+mc_mm_switch*agauss(0,1.0,1)*(sky130_fd_pr__nfet_01v8_lvt__voff_slope/sqrt(l*w*mult))} lvoff=4.269914194e-09 wvoff=3.148873777e-08 pvoff=-1.566733571e-14 nfactor={2.098751310e+00+mc_mm_switch*agauss(0,1.0,1)*(sky130_fd_pr__nfet_01v8_lvt__nfactor_slope/sqrt(l*w*mult))} lnfactor=-6.980714917e-10 wnfactor=-7.938236699e-07 pnfactor=7.721020721e-13 up=0.0 ud=0.0 lp=1.0 tvfbsdoff=0.0 tvoff=0.0 cit=5.0e-6 cdsc=3.8556e-37 cdscb=-0.00011484 cdscd=4.7984e-6 eta0=-1.021461833e-02 leta0=4.878606545e-09 weta0=3.485759816e-08 peta0=-1.667523225e-14 etab=-4.249328683e-02 letab=2.019571222e-08 wetab=4.658548286e-07 petab=-2.217289076e-13 dsub=1.820262607e+00 ldsub=-3.904039879e-07 wdsub=-1.116068150e-06 pdsub=5.311926360e-13 voffl=0.0 minv=0.0 pclm=1.315063217e+00 lpclm=-2.183923309e-07 wpclm=-4.685384571e-06 ppclm=1.108316040e-12 pdiblc1=0.39 pdiblc2=1.276766690e-02 lpdiblc2=-2.995344368e-10 wpdiblc2=-3.709930945e-08 ppdiblc2=1.230577057e-14 pdiblcb=0.0 drout=3.4946 pscbe1=450000000.0 pscbe2=1.0e-8 pvag=0.0 delta=0.01 alpha0=-4.448795377e-03 lalpha0=2.242319782e-09 walpha0=1.504470572e-08 palpha0=-7.500255397e-15 alpha1=0.0 beta0=1.851521036e+01 lbeta0=3.328269572e-06 wbeta0=-2.508058894e-06 pbeta0=-2.536939092e-12 fprout=0.0 pdits=1.4427e-15 pditsl=0.0 pditsd=0.0 agidl=0.0 bgidl=2300000000.0 cgidl=0.5 egidl=0.8 aigbacc=1.0 bigbacc=0.0 cigbacc=0.0 nigbacc=1.0 aigbinv=0.35 bigbinv=0.03 cigbinv=0.006 eigbinv=1.1 nigbinv=3.0 aigc=0.43 bigc=0.054 cigc=0.075 nigc=1.0 aigsd=0.43 bigsd=0.054 cigsd=0.075 dlcig=0.0 poxedge=1.0 pigcd=1.0 ntox=1.0 toxref=4.148e-9 kt1=-1.780772817e-01 lkt1=-3.716036509e-08 wkt1=-5.271307546e-07 pkt1=2.285116634e-13 kt2=6.870079521e-03 lkt2=-3.954246557e-09 wkt2=-2.447166678e-07 pkt2=3.800356561e-14 at=1.790869369e+05 lat=-2.419072180e-02 wat=-6.365929122e-01 pat=1.174502455e-7 ute=1.632015465e+00 lute=-1.224755583e-06 wute=-1.430447129e-05 pute=6.562413731e-12 ua1=8.772002011e-09 lua1=-3.056606628e-15 wua1=-3.242425456e-14 pua1=1.556200432e-20 ub1=-7.742786767e-18 lub1=2.555365298e-24 wub1=2.508879320e-23 pub1=-1.236988866e-29 uc1=3.030103002e-10 luc1=-9.788108918e-17 wuc1=-1.762373333e-15 puc1=5.452289821e-22 kt1l=0.0 prt=0.0 xrcrg1=12.0 xrcrg2=1.0 rbpb=50.0 rbpd=50.0 rbps=50.0 rbdb=50.0 rbsb=50.0 gbmin=1.0e-12 noia=9.0e+41 noib=1.0e+27 noic=800000000000.0 em=41000000.0 af=1.0 ef=1.2 kf=0.0 ntnoi=1.0 dmcg=0.0 dmcgt=0.0 dmdg=0.0 xgw=0.0 xgl=0.0 ngcon=1.0 diomod=1.0 njs=1.2928 jss=0.00275 jsws=6.0e-10 xtis=2.0 bvs=11.9 xjbvs=1.0 ijthsrev=0.1 ijthsfwd=0.1 tpb=0.0012287 tpbsw=0.0 tpbswg=0.0 tcj=0.000792 tcjsw=1.0e-5 tcjswg=0.0 cgdo=2.392894381e-10 cgso=2.392894381e-10 cgbo=1.0e-14 capmod=2.0 xpart=0.0 cgsl=2.310725e-11 cgdl=2.310725e-11 cf=1.0e-14 clc=1.0e-7 cle=0.6 dlc=1.21071e-8 dwc=2.6e-8 vfbcv=-1.0 acde=0.38008 moin=23.81 noff=3.8661 voffcv=-0.16994 ngate=1.0e+23 lwc=0.0 llc=0.0 lwlc=0.0 wlc=0.0 wwc=0.0 wwlc=0.0 ckappas=0.6 cjs=0.0012094836 mjs=0.42197 pbs=0.7477 cjsws=3.230311424e-11 mjsws=0.001 pbsws=0.1 cjswgs=1.795291232e-10 mjswgs=0.8 pbswgs=0.79644 saref=1.25e-6 sbref=1.24e-6 wlod={0+sky130_fd_pr__nfet_01v8_lvt__wlod_diff} kvth0={0+sky130_fd_pr__nfet_01v8_lvt__kvth0_diff} lkvth0={0+sky130_fd_pr__nfet_01v8_lvt__lkvth0_diff} wkvth0={0+sky130_fd_pr__nfet_01v8_lvt__wkvth0_diff} pkvth0=0.0 llodvth=0.0 wlodvth=1.0 stk2=0.0 lodk2=1.0 lodeta0=1.0 ku0={0+sky130_fd_pr__nfet_01v8_lvt__ku0_diff} lku0={0+sky130_fd_pr__nfet_01v8_lvt__lku0_diff} wku0={0+sky130_fd_pr__nfet_01v8_lvt__wku0_diff} pku0=0.0 llodku0=0.0 wlodku0=1.0 kvsat={0+sky130_fd_pr__nfet_01v8_lvt__kvsat_diff} steta0=0.0 tku0=0.0
Original line no.: 0, new internal line no.: 12361:
Cannot compute substitute
Original line no.: 0, new internal line no.: 12362:
Undefined number [l]
Original line no.: 0, new internal line no.: 12362:
 Expression err: l*w*mult)))} dtox=0.0 ndep=1.7000000000000000e+17 nsd=1.0e+20 rshg=0.1 rsh=1.0 vth0={6.118621589e-01+mc_mm_switch*agauss(0,1.0,1)*(sky130_fd_pr__nfet_01v8_lvt__vth0_slope1/sqrt(l*w*mult))} lvth0=-5.982567463e-08 wvth0=-2.267804122e-08 pvth0=1.327627359e-14 k1=1.682851083e-01 lk1=8.065160094e-08 wk1=1.023763325e-06 pk1=-1.454921812e-13 k2=3.885495103e-02 lk2=-2.180250357e-08 wk2=-2.999473631e-07 pk2=4.120523238e-14 k3=1.65 dvt0=0.07665 dvt1=0.1252 dvt2=-0.05637 dvt0w=0.0 dvt1w=5300000.0 dvt2w=-0.032 w0=1.0e-7 k3b=1.6 vfb=0.0 phin=0.0 lpe0=2.3802e-7 lpeb=-4.9152e-8 vbm=-3.0 dvtp0=0.0 dvtp1=0.0 vsat=1.900498318e+05 lvsat=-2.519661753e-03 wvsat=-2.635111525e-01 pvsat=3.745226918e-8 ua=-3.170460283e-09 lua=1.373018754e-16 wua=1.553799985e-14 pua=-2.529318909e-21 ub=4.758410537e-18 lub=-2.929780080e-25 wub=-1.496906352e-23 pub=2.286907600e-30 uc=-1.275427629e-11 luc=1.067687481e-17 wuc=6.666275507e-16 puc=-1.195323152e-22 rdsw=103.65 prwb=0.0 prwg=0.0 wr=1.0 u0=2.105891285e-02 lu0=-6.346707162e-10 wu0=1.271014808e-07 pu0=-2.132666166e-14 a0=6.587983926e+00 la0=-1.027396093e-06 wa0=-9.593831633e-06 pa0=1.496158043e-12 keta=6.886116130e-01 lketa=-1.388364346e-07 wketa=-3.072711589e-06 pketa=5.705770742e-13 a1=0.0 a2=0.38689047 ags=-2.749845442e+00 lags=6.213275777e-07 wags=4.721236442e-07 pags=-1.066763374e-13 b0=0.0 b1=0.0 eu=1.67 rdswmin=0.0 rdw=0.0 rdwmin=0.0 rsw=0.0 rswmin=0.0 voff={-1.745077203e-01+mc_mm_switch*agauss(0,1.0,1)*(sky130_fd_pr__nfet_01v8_lvt__voff_slope/sqrt(l*w*mult))} lvoff=1.586870100e-08 wvoff=7.341245702e-08 pvoff=-2.514000007e-14 nfactor={2.563830907e-01+mc_mm_switch*agauss(0,1.0,1)*(sky130_fd_pr__nfet_01v8_lvt__nfactor_slope/sqrt(l*w*mult))} lnfactor=4.155850276e-07 wnfactor=6.914345801e-06 pnfactor=-9.695588197e-13 up=0.0 ud=0.0 lp=1.0 tvfbsdoff=0.0 tvoff=0.0 cit=-2.241036374e-07 lcit=1.180386217e-12 wcit=3.629707207e-11 pcit=-8.201323435e-18 cdsc=3.8556e-37 cdscb=-0.00011484 cdscd=4.7984e-6 eta0=-5.857628930e-02 leta0=1.580592587e-08 weta0=-6.623097778e-07 peta0=1.408497363e-13 etab=1.720249857e-01 letab=-2.827469146e-08 wetab=-1.577993174e-06 petab=2.400785486e-13 dsub=-4.412068082e-01 ldsub=1.205750265e-07 wdsub=4.141560110e-06 pdsub=-6.567684693e-13 voffl=0.0 minv=0.0 pclm=7.310477266e-01 lpclm=-8.643403085e-08 wpclm=1.150115208e-06 ppclm=-2.102151355e-13 pdiblc1=-9.690011940e-01 lpdiblc1=3.070663198e-07 wpdiblc1=5.792441349e-11 ppdiblc1=-1.308802123e-17 pdiblc2=-1.399733861e-02 lpdiblc2=5.748018559e-09 wpdiblc2=1.977222189e-07 ppdiblc2=-4.075215377e-14 pdiblcb=0.0 drout=3.4946 pscbe1=450000000.0 pscbe2=1.0e-8 pvag=0.0 delta=0.01 alpha0=2.098787927e-02 lalpha0=-3.505096855e-09 walpha0=-9.157765437e-08 palpha0=1.659106686e-14 alpha1=0.0 beta0=5.064741493e+01 lbeta0=-3.932002052e-06 wbeta0=-9.951766904e-05 pbeta0=1.938238232e-11 fprout=0.0 pdits=1.4427e-15 pditsl=0.0 pditsd=0.0 agidl=0.0 bgidl=2300000000.0 cgidl=0.5 egidl=0.8 aigbacc=1.0 bigbacc=0.0 cigbacc=0.0 nigbacc=1.0 aigbinv=0.35 bigbinv=0.03 cigbinv=0.006 eigbinv=1.1 nigbinv=3.0 aigc=0.43 bigc=0.054 cigc=0.075 nigc=1.0 aigsd=0.43 bigsd=0.054 cigsd=0.075 dlcig=0.0 poxedge=1.0 pigcd=1.0 ntox=1.0 toxref=4.148e-9 kt1=-3.809161004e-01 lkt1=8.671065990e-09 wkt1=1.380844729e-06 pkt1=-2.025953971e-13 kt2=-8.864338002e-02 lkt2=1.762701963e-08 wkt2=3.719557011e-07 pkt2=-1.013335561e-13 at=7.209416075e+04 lat=-1.570404195e-05 wat=-4.999605217e-01 pat=8.657815686e-8 ute=-6.188275033e+00 lute=5.422390548e-07 wute=3.507858718e-05 pute=-4.595688331e-12 ua1=-1.385078990e-08 lua1=2.055013205e-15 wua1=1.069470704e-13 pua1=-1.592894656e-20 ub1=1.150465572e-17 lub1=-1.793594333e-24 wub1=-9.380188271e-23 pub1=1.449345956e-29 uc1=-4.351785849e-10 luc1=6.891268941e-17 wuc1=2.175022567e-15 puc1=-3.444256217e-22 kt1l=0.0 prt=0.0 xrcrg1=12.0 xrcrg2=1.0 rbpb=50.0 rbpd=50.0 rbps=50.0 rbdb=50.0 rbsb=50.0 gbmin=1.0e-12 noia=9.0e+41 noib=1.0e+27 noic=800000000000.0 em=41000000.0 af=1.0 ef=1.2 kf=0.0 ntnoi=1.0 dmcg=0.0 dmcgt=0.0 dmdg=0.0 xgw=0.0 xgl=0.0 ngcon=1.0 diomod=1.0 njs=1.2928 jss=0.00275 jsws=6.0e-10 xtis=2.0 bvs=11.9 xjbvs=1.0 ijthsrev=0.1 ijthsfwd=0.1 tpb=0.0012287 tpbsw=0.0 tpbswg=0.0 tcj=0.000792 tcjsw=1.0e-5 tcjswg=0.0 cgdo=2.392894381e-10 cgso=2.392894381e-10 cgbo=1.0e-14 capmod=2.0 xpart=0.0 cgsl=2.310725e-11 cgdl=2.310725e-11 cf=1.0e-14 clc=1.0e-7 cle=0.6 dlc=1.21071e-8 dwc=2.6e-8 vfbcv=-1.0 acde=0.38008 moin=23.81 noff=3.8661 voffcv=-0.16994 ngate=1.0e+23 lwc=0.0 llc=0.0 lwlc=0.0 wlc=0.0 wwc=0.0 wwlc=0.0 ckappas=0.6 cjs=0.0012094836 mjs=0.42197 pbs=0.7477 cjsws=3.230311424e-11 mjsws=0.001 pbsws=0.1 cjswgs=1.795291232e-10 mjswgs=0.8 pbswgs=0.79644 saref=1.1e-6 sbref=1.1e-6 wlod={0+sky130_fd_pr__nfet_01v8_lvt__wlod_diff} kvth0={0+sky130_fd_pr__nfet_01v8_lvt__kvth0_diff} lkvth0={0+sky130_fd_pr__nfet_01v8_lvt__lkvth0_diff} wkvth0={0+sky130_fd_pr__nfet_01v8_lvt__wkvth0_diff} pkvth0=0.0 llodvth=0.0 wlodvth=1.0 stk2=0.0 lodk2=1.0 lodeta0=1.0 ku0={0+sky130_fd_pr__nfet_01v8_lvt__ku0_diff} lku0={0+sky130_fd_pr__nfet_01v8_lvt__lku0_diff} wku0={0+sky130_fd_pr__nfet_01v8_lvt__wku0_diff} pku0=0.0 llodku0=0.0 wlodku0=1.0 kvsat={0+sky130_fd_pr__nfet_01v8_lvt__kvsat_diff} steta0=0.0 tku0=0.0
Original line no.: 0, new internal line no.: 12362:
Cannot compute substitute
Original line no.: 0, new internal line no.: 12363:
Undefined number [l]
Original line no.: 0, new internal line no.: 12363:
 Expression err: l*w*mult)))} dtox=0.0 ndep=1.7000000000000000e+17 nsd=1.0e+20 rshg=0.1 rsh=1.0 vth0={2.645687442e-01+mc_mm_switch*agauss(0,1.0,1)*(sky130_fd_pr__nfet_01v8_lvt__vth0_slope1/sqrt(l*w*mult))} lvth0=-5.665266596e-09 wvth0=-1.015060938e-07 pvth0=2.556950838e-14 k1=1.589330356e+00 lk1=-1.409604054e-07 wk1=-4.016767262e-06 pk1=6.405785639e-13 k2=-3.863594104e-01 lk2=4.450967610e-08 wk2=1.174078723e-06 pk2=-1.886691357e-13 k3=1.65 dvt0=0.07665 dvt1=0.1252 dvt2=-0.05637 dvt0w=0.0 dvt1w=5300000.0 dvt2w=-0.032 w0=1.0e-7 k3b=1.6 vfb=0.0 phin=0.0 lpe0=2.3802e-7 lpeb=-4.9152e-8 vbm=-3.0 dvtp0=0.0 dvtp1=0.0 vsat=1.521302627e+05 lvsat=3.393895041e-03 wvsat=2.074343203e-01 pvsat=-3.599167731e-8 ua=-6.864350754e-09 lua=7.133640943e-16 wua=2.339738362e-14 pua=-3.754989808e-21 ub=1.065127934e-17 lub=-1.211970898e-24 wub=-4.218730751e-23 pub=6.531592751e-30 uc=4.100475213e-10 luc=-5.525906552e-17 wuc=-1.554112496e-15 puc=2.267920951e-22 rdsw=103.65 prwb=0.0 prwg=0.0 wr=1.0 u0=2.010834965e-02 lu0=-4.864303858e-10 wu0=-4.097676176e-08 pu0=4.885140275e-15 a0=0.0 keta=5.960802604e-01 lketa=-1.244061701e-07 wketa=-3.051225693e-06 pketa=5.672263486e-13 a1=0.0 a2=0.38689047 ags=1.171303655e+00 lags=9.824375992e-09 wags=-1.153957340e-06 pags=1.469109921e-13 b0=0.0 b1=0.0 eu=1.67 rdswmin=0.0 rdw=0.0 rdwmin=0.0 rsw=0.0 rswmin=0.0 voff={-4.190333247e-01+mc_mm_switch*agauss(0,1.0,1)*(sky130_fd_pr__nfet_01v8_lvt__voff_slope/sqrt(l*w*mult))} lvoff=5.400246901e-08 wvoff=2.082211422e-06 pvoff=-3.384121986e-13 nfactor={-2.636019729e+00+mc_mm_switch*agauss(0,1.0,1)*(sky130_fd_pr__nfet_01v8_lvt__nfactor_slope/sqrt(l*w*mult))} lnfactor=8.666552473e-07 wnfactor=2.334166099e-05 pnfactor=-3.531398623e-12 up=0.0 ud=0.0 lp=1.0 tvfbsdoff=0.0 tvoff=0.0 cit=1.718957515e-05 lcit=-1.535276991e-12 wcit=-8.469316817e-11 pcit=1.066710453e-17 cdsc=3.8556e-37 cdscb=-0.00011484 cdscd=4.7984e-6 eta0=-3.111874360e-01 leta0=5.520063420e-08 weta0=2.632074625e-06 peta0=-3.729095113e-13 etab=-1.756825561e-01 letab=2.595029969e-08 wetab=6.851095014e-07 petab=-1.128523136e-13 dsub=6.340608263e-01 ldsub=-4.711296107e-08 wdsub=-3.630723397e-07 pdsub=4.572896119e-14 voffl=0.0 minv=0.0 pclm=1.369884534e+00 lpclm=-1.860606310e-07 wpclm=-8.914701697e-06 ppclm=1.359393061e-12 pdiblc1=8.993563655e+00 lpdiblc1=-1.246595668e-06 wpdiblc1=-3.758781457e-05 ppdiblc1=5.861815627e-12 pdiblc2=1.271247206e-01 lpdiblc2=-1.625996658e-08 wpdiblc2=-4.334782007e-07 ppdiblc2=5.768355168e-14 pdiblcb=0.0 drout=3.4946 pscbe1=450000000.0 pscbe2=1.0e-8 pvag=0.0 delta=0.01 alpha0=-6.684812109e-03 lalpha0=8.104593659e-10 walpha0=5.817018278e-08 palpha0=-6.762108340e-15 alpha1=0.0 beta0=2.028701882e+01 lbeta0=8.027017212e-07 wbeta0=7.610709275e-05 pbeta0=-8.006299281e-12 fprout=0.0 pdits=1.4427e-15 pditsl=0.0 pditsd=0.0 agidl=0.0 bgidl=2300000000.0 cgidl=0.5 egidl=0.8 aigbacc=1.0 bigbacc=0.0 cigbacc=0.0 nigbacc=1.0 aigbinv=0.35 bigbinv=0.03 cigbinv=0.006 eigbinv=1.1 nigbinv=3.0 aigc=0.43 bigc=0.054 cigc=0.075 nigc=1.0 aigsd=0.43 bigsd=0.054 cigsd=0.075 dlcig=0.0 poxedge=1.0 pigcd=1.0 ntox=1.0 toxref=4.148e-9 kt1=9.169068374e-02 lkt1=-6.503196200e-08 wkt1=-2.687555883e-06 pkt1=4.318716783e-13 kt2=3.628031166e-01 lkt2=-5.277606152e-08 wkt2=-2.373265438e-06 pkt2=3.267836806e-13 at=-7.713296612e+04 lat=2.325626639e-02 wat=9.801982444e-01 pat=-1.442526027e-7 ute=-4.278255164e+00 lute=2.443714563e-07 wute=9.983354214e-06 pute=-6.820867490e-13 ua1=-6.873444496e-09 lua1=9.668961886e-16 wua1=3.087984701e-14 pua1=-4.066263069e-21 ub1=5.970576591e-18 lub1=-9.305546923e-25 wub1=-2.450001669e-23 pub1=3.685833557e-30 uc1=-2.592159638e-10 luc1=4.147131865e-17 wuc1=1.837265485e-15 puc1=-2.917524047e-22 kt1l=0.0 prt=0.0 xrcrg1=12.0 xrcrg2=1.0 rbpb=50.0 rbpd=50.0 rbps=50.0 rbdb=50.0 rbsb=50.0 gbmin=1.0e-12 noia=9.0e+41 noib=1.0e+27 noic=800000000000.0 em=41000000.0 af=1.0 ef=1.2 kf=0.0 ntnoi=1.0 dmcg=0.0 dmcgt=0.0 dmdg=0.0 xgw=0.0 xgl=0.0 ngcon=1.0 diomod=1.0 njs=1.2928 jss=0.00275 jsws=6.0e-10 xtis=2.0 bvs=11.9 xjbvs=1.0 ijthsrev=0.1 ijthsfwd=0.1 tpb=0.0012287 tpbsw=0.0 tpbswg=0.0 tcj=0.000792 tcjsw=1.0e-5 tcjswg=0.0 cgdo=2.392894381e-10 cgso=2.392894381e-10 cgbo=1.0e-14 capmod=2.0 xpart=0.0 cgsl=2.310725e-11 cgdl=2.310725e-11 cf=1.0e-14 clc=1.0e-7 cle=0.6 dlc=1.21071e-8 dwc=2.6e-8 vfbcv=-1.0 acde=0.38008 moin=23.81 noff=3.8661 voffcv=-0.16994 ngate=1.0e+23 lwc=0.0 llc=0.0 lwlc=0.0 wlc=0.0 wwc=0.0 wwlc=0.0 ckappas=0.6 cjs=0.0012094836 mjs=0.42197 pbs=0.7477 cjsws=3.230311424e-11 mjsws=0.001 pbsws=0.1 cjswgs=1.795291232e-10 mjswgs=0.8 pbswgs=0.79644 saref=1.04e-6 sbref=1.04e-6 wlod={0+sky130_fd_pr__nfet_01v8_lvt__wlod_diff} kvth0={0+sky130_fd_pr__nfet_01v8_lvt__kvth0_diff} lkvth0={0+sky130_fd_pr__nfet_01v8_lvt__lkvth0_diff} wkvth0={0+sky130_fd_pr__nfet_01v8_lvt__wkvth0_diff} pkvth0=0.0 llodvth=0.0 wlodvth=1.0 stk2=0.0 lodk2=1.0 lodeta0=1.0 ku0={0+sky130_fd_pr__nfet_01v8_lvt__ku0_diff} lku0={0+sky130_fd_pr__nfet_01v8_lvt__lku0_diff} wku0={0+sky130_fd_pr__nfet_01v8_lvt__wku0_diff} pku0=0.0 llodku0=0.0 wlodku0=1.0 kvsat={0+sky130_fd_pr__nfet_01v8_lvt__kvsat_diff} steta0=0.0 tku0=0.0
Original line no.: 0, new internal line no.: 12363:
Cannot compute substitute
Original line no.: 0, new internal line no.: 12364:
Undefined number [l]
Original line no.: 0, new internal line no.: 12364:
 Expression err: l*w*mult)))} dtox=0.0 ndep=1.7000000000000000e+17 nsd=1.0e+20 rshg=0.1 rsh=1.0 vth0={0.4285278+mc_mm_switch*agauss(0,1.0,1)*(sky130_fd_pr__nfet_01v8_lvt__vth0_slope/sqrt(l*w*mult))} k1=0.40031 k2=-0.008541591 k3=1.65 dvt0=0.07665 dvt1=0.1252 dvt2=-0.05637 dvt0w=0.0 dvt1w=5300000.0 dvt2w=-0.032 w0=1.0e-7 k3b=1.6 vfb=0.0 phin=0.0 lpe0=2.3802e-7 lpeb=-4.9152e-8 vbm=-3.0 dvtp0=0.0 dvtp1=0.0 vsat=242950.0 ua=-1.26571325e-9 ub=2.66092e-18 uc=7.0441e-11 rdsw=103.65 prwb=0.0 prwg=0.0 wr=1.0 u0=0.03239829 a0=1.9247773 keta=0.0 a1=0.0 a2=0.38689047 ags=0.547527 b0=0.0 b1=0.0 eu=1.67 rdswmin=0.0 rdw=0.0 rdwmin=0.0 rsw=0.0 rswmin=0.0 voff={-0.11890341+mc_mm_switch*agauss(0,1.0,1)*(sky130_fd_pr__nfet_01v8_lvt__voff_slope/sqrt(l*w*mult))} nfactor={1.02152474+mc_mm_switch*agauss(0,1.0,1)*(sky130_fd_pr__nfet_01v8_lvt__nfactor_slope/sqrt(l*w*mult))} up=0.0 ud=0.0 lp=1.0 tvfbsdoff=0.0 tvoff=0.0 cit=1.0e-5 cdsc=3.8556e-37 cdscb=-0.00011484 cdscd=4.7984e-6 eta0=0.08 etab=-0.07 dsub=0.56 voffl=0.0 minv=0.0 pclm=0.068446 pdiblc1=0.39 pdiblc2=0.006587 pdiblcb=0.0 drout=3.4946 pscbe1=450000000.0 pscbe2=1.0e-8 pvag=0.0 delta=0.01 alpha0=3.3789948e-5 alpha1=0.0 beta0=17.541356 fprout=0.0 pdits=1.4427e-15 pditsl=0.0 pditsd=0.0 agidl=0.0 bgidl=2300000000.0 cgidl=0.5 egidl=0.8 aigbacc=1.0 bigbacc=0.0 cigbacc=0.0 nigbacc=1.0 aigbinv=0.35 bigbinv=0.03 cigbinv=0.006 eigbinv=1.1 nigbinv=3.0 aigc=0.43 bigc=0.054 cigc=0.075 nigc=1.0 aigsd=0.43 bigsd=0.054 cigsd=0.075 dlcig=0.0 poxedge=1.0 pigcd=1.0 ntox=1.0 toxref=4.148e-9 kt1=-0.25403 kt2=-0.03469 at=68095.0 ute=-1.1969 ua1=2.9253e-9 ub1=-3.2731e-18 uc1=-2.6978e-11 kt1l=0.0 prt=0.0 xrcrg1=12.0 xrcrg2=1.0 rbpb=50.0 rbpd=50.0 rbps=50.0 rbdb=50.0 rbsb=50.0 gbmin=1.0e-12 noia=9.0e+41 noib=1.0e+27 noic=800000000000.0 em=41000000.0 af=1.0 ef=1.2 kf=0.0 ntnoi=1.0 dmcg=0.0 dmcgt=0.0 dmdg=0.0 xgw=0.0 xgl=0.0 ngcon=1.0 diomod=1.0 njs=1.2928 jss=0.00275 jsws=6.0e-10 xtis=2.0 bvs=11.9 xjbvs=1.0 ijthsrev=0.1 ijthsfwd=0.1 tpb=0.0012287 tpbsw=0.0 tpbswg=0.0 tcj=0.000792 tcjsw=1.0e-5 tcjswg=0.0 cgdo=2.392894381e-10 cgso=2.392894381e-10 cgbo=1.0e-14 capmod=2.0 xpart=0.0 cgsl=2.310725e-11 cgdl=2.310725e-11 cf=1.0e-14 clc=1.0e-7 cle=0.6 dlc=1.21071e-8 dwc=2.6e-8 vfbcv=-1.0 acde=0.38008 moin=23.81 noff=3.8661 voffcv=-0.16994 ngate=1.0e+23 lwc=0.0 llc=0.0 lwlc=0.0 wlc=0.0 wwc=0.0 wwlc=0.0 ckappas=0.6 cjs=0.0012094836 mjs=0.42197 pbs=0.7477 cjsws=3.230311424e-11 mjsws=0.001 pbsws=0.1 cjswgs=1.795291232e-10 mjswgs=0.8 pbswgs=0.79644 saref=3.0e-6 sbref=3.0e-6 wlod={0+sky130_fd_pr__nfet_01v8_lvt__wlod_diff} kvth0={0+sky130_fd_pr__nfet_01v8_lvt__kvth0_diff} lkvth0={0+sky130_fd_pr__nfet_01v8_lvt__lkvth0_diff} wkvth0={0+sky130_fd_pr__nfet_01v8_lvt__wkvth0_diff} pkvth0=0.0 llodvth=0.0 wlodvth=1.0 stk2=0.0 lodk2=1.0 lodeta0=1.0 ku0={0+sky130_fd_pr__nfet_01v8_lvt__ku0_diff} lku0={0+sky130_fd_pr__nfet_01v8_lvt__lku0_diff} wku0={0+sky130_fd_pr__nfet_01v8_lvt__wku0_diff} pku0=0.0 llodku0=0.0 wlodku0=1.0 kvsat={0+sky130_fd_pr__nfet_01v8_lvt__kvsat_diff} steta0=0.0 tku0=0.0
Original line no.: 0, new internal line no.: 12364:
Cannot compute substitute
Original line no.: 0, new internal line no.: 12365:
Undefined number [l]
Original line no.: 0, new internal line no.: 12365:
[...]
Original line no.: 0, new internal line no.: 12431:
Cannot compute substitute
Original line no.: 0, new internal line no.: 12432:
Undefined number [l]
Original line no.: 0, new internal line no.: 12432:
 Expression err: l*w*mult)))} dtox=0.0 ndep=1.7000000000000000e+17 nsd=1.0e+20 rshg=0.1 rsh=1.0 vth0={4.050461514e-01+mc_mm_switch*agauss(0,1.0,1)*(sky130_fd_pr__nfet_01v8_lvt__vth0_slope/sqrt(l*w*mult))} lvth0=1.186369560e-8 k1=4.861629200e-01 lk1=-6.317246274e-9 k2=-4.362897425e-02 lk2=5.611461224e-10 wk2=-1.323488980e-23 k3=1.65 dvt0=0.07665 dvt1=0.1252 dvt2=-0.05637 dvt0w=0.0 dvt1w=5300000.0 dvt2w=-0.032 w0=1.0e-7 k3b=1.6 vfb=0.0 phin=0.0 lpe0=2.3802e-7 lpeb=-4.9152e-8 vbm=-3.0 dvtp0=0.0 dvtp1=0.0 vsat=1.557782237e+04 lvsat=7.425337721e-2 ua=-5.550630167e-10 lua=-6.146667619e-16 ub=2.487601006e-18 lub=7.920712019e-26 uc=-4.859503495e-12 luc=2.932778889e-17 rdsw=103.65 prwb=0.0 prwg=0.0 wr=1.0 u0=3.814778995e-02 lu0=-7.414672723e-9 a0=2.113501192e+00 la0=-5.403846783e-7 keta=-2.537470000e-01 lketa=1.207708847e-7 a1=0.0 a2=0.38689047 ags=3.217210699e+00 lags=-1.423433517e-6 b0=1.573407071e-07 lb0=-7.488630954e-14 b1=4.337316990e-09 lb1=-2.064346021e-15 eu=1.67 rdswmin=0.0 rdw=0.0 rdwmin=0.0 rsw=0.0 rswmin=0.0 voff={-1.371327740e-01+mc_mm_switch*agauss(0,1.0,1)*(sky130_fd_pr__nfet_01v8_lvt__voff_slope/sqrt(l*w*mult))} lvoff=6.808133470e-9 nfactor={5.729705708e-01+mc_mm_switch*agauss(0,1.0,1)*(sky130_fd_pr__nfet_01v8_lvt__nfactor_slope/sqrt(l*w*mult))} lnfactor=8.320136823e-7 up=0.0 ud=0.0 lp=1.0 tvfbsdoff=0.0 tvoff=0.0 cit=1.475950000e-05 lcit=-4.645034025e-12 cdsc=3.8556e-37 cdscb=-0.00011484 cdscd=4.7984e-6 eta0=-2.454590156e-03 leta0=2.458162504e-09 weta0=-1.033975766e-25 peta0=-1.109335648e-31 etab=1.189875000e-04 letab=-1.161258506e-10 dsub=-4.444060000e-01 ldsub=6.874650357e-07 pdsub=5.048709793e-29 voffl=0.0 minv=0.0 pclm=1.675854170e-01 lpclm=7.485007828e-8 pdiblc1=0.39 pdiblc2=1.542529486e-02 lpdiblc2=-3.845530769e-9 pdiblcb=0.0 drout=3.4946 pscbe1=450000000.0 pscbe2=1.0e-8 pvag=0.0 delta=0.01 alpha0=3.850049536e-05 lalpha0=4.870760197e-11 alpha1=0.0 beta0=1.963221613e+01 lbeta0=2.214225476e-6 fprout=0.0 pdits=1.4427e-15 pditsl=0.0 pditsd=0.0 agidl=0.0 bgidl=2300000000.0 cgidl=0.5 egidl=0.8 aigbacc=1.0 bigbacc=0.0 cigbacc=0.0 nigbacc=1.0 aigbinv=0.35 bigbinv=0.03 cigbinv=0.006 eigbinv=1.1 nigbinv=3.0 aigc=0.43 bigc=0.054 cigc=0.075 nigc=1.0 aigsd=0.43 bigsd=0.054 cigsd=0.075 dlcig=0.0 poxedge=1.0 pigcd=1.0 ntox=1.0 toxref=4.148e-9 kt1=-2.411282340e-01 lkt1=-1.406516303e-8 kt2=-2.790156450e-02 lkt2=-3.757832526e-9 at=8.851262740e+04 lat=-3.387158811e-3 ute=-9.871016800e-01 lute=-6.763169540e-8 ua1=2.723974490e-09 lua1=-6.011603035e-16 ub1=-2.471828360e-18 lub1=5.614917129e-25 uc1=8.498331840e-11 luc1=-4.601928109e-17 wuc1=1.232595164e-32 puc1=5.877471754e-39 kt1l=0.0 prt=0.0 xrcrg1=12.0 xrcrg2=1.0 rbpb=50.0 rbpd=50.0 rbps=50.0 rbdb=50.0 rbsb=50.0 gbmin=1.0e-12 noia=9.0e+41 noib=1.0e+27 noic=800000000000.0 em=41000000.0 af=1.0 ef=1.2 kf=0.0 ntnoi=1.0 dmcg=0.0 dmcgt=0.0 dmdg=0.0 xgw=0.0 xgl=0.0 ngcon=1.0 diomod=1.0 njs=1.2928 jss=0.00275 jsws=6.0e-10 xtis=2.0 bvs=11.9 xjbvs=1.0 ijthsrev=0.1 ijthsfwd=0.1 tpb=0.0012287 tpbsw=0.0 tpbswg=0.0 tcj=0.000792 tcjsw=1.0e-5 tcjswg=0.0 cgdo=2.392894381e-10 cgso=2.392894381e-10 cgbo=1.0e-14 capmod=2.0 xpart=0.0 cgsl=2.310725e-11 cgdl=2.310725e-11 cf=1.0e-14 clc=1.0e-7 cle=0.6 dlc=1.21071e-8 dwc=2.6e-8 vfbcv=-1.0 acde=0.38008 moin=23.81 noff=3.8661 voffcv=-0.16994 ngate=1.0e+23 lwc=0.0 llc=0.0 lwlc=0.0 wlc=0.0 wwc=0.0 wwlc=0.0 ckappas=0.6 cjs=0.0012094836 mjs=0.42197 pbs=0.7477 cjsws=3.230311424e-11 mjsws=0.001 pbsws=0.1 cjswgs=1.795291232e-10 mjswgs=0.8 pbswgs=0.79644 saref=1.74e-6 sbref=1.74e-6 wlod={0+sky130_fd_pr__nfet_01v8_lvt__wlod_diff} kvth0={0+sky130_fd_pr__nfet_01v8_lvt__kvth0_diff} lkvth0={0+sky130_fd_pr__nfet_01v8_lvt__lkvth0_diff} wkvth0={0+sky130_fd_pr__nfet_01v8_lvt__wkvth0_diff} pkvth0=0.0 llodvth=0.0 wlodvth=1.0 stk2=0.0 lodk2=1.0 lodeta0=1.0 ku0={0+sky130_fd_pr__nfet_01v8_lvt__ku0_diff} lku0={0+sky130_fd_pr__nfet_01v8_lvt__lku0_diff} wku0={0+sky130_fd_pr__nfet_01v8_lvt__wku0_diff} pku0=0.0 llodku0=0.0 wlodku0=1.0 kvsat={0+sky130_fd_pr__nfet_01v8_lvt__kvsat_diff} steta0=0.0 tku0=0.0
Original line no.: 0, new internal line no.: 12432:
Cannot compute substitute
Original line no.: 0, new internal line no.: 12433:
Undefined number [l]
Original line no.: 0, new internal line no.: 12433:
 Expression err: l*w*mult)))} dtox=0.0 ndep=1.7000000000000000e+17 nsd=1.0e+20 rshg=0.1 rsh=1.0 vth0={4.955958815e-01+mc_mm_switch*agauss(0,1.0,1)*(sky130_fd_pr__nfet_01v8_lvt__vth0_slope/sqrt(l*w*mult))} lvth0=-3.123344844e-8 k1=3.575470440e-01 lk1=5.489747991e-8 k2=-1.180429035e-02 lk2=-1.458581218e-8 k3=1.65 dvt0=0.07665 dvt1=0.1252 dvt2=-0.05637 dvt0w=0.0 dvt1w=5300000.0 dvt2w=-0.032 w0=1.0e-7 k3b=1.6 vfb=0.0 phin=0.0 lpe0=2.3802e-7 lpeb=-4.9152e-8 vbm=-3.0 dvtp0=0.0 dvtp1=0.0 vsat=1.920040959e+05 lvsat=-9.716707688e-3 ua=-1.540010971e-09 lua=-1.458807828e-16 ub=2.620208842e-18 lub=1.609242065e-26 uc=7.025556412e-11 luc=-6.423227544e-18 rdsw=103.65 prwb=0.0 prwg=0.0 wr=1.0 u0=2.679655316e-02 lu0=-2.012051571e-9 a0=4.931589960e-01 la0=2.308171899e-7 keta=2.449876974e-02 lketa=-1.166018946e-8 a1=0.0 a2=0.38689047 ags=4.311916620e-01 lags=-9.742775603e-8 b0=0.0 b1=0.0 eu=1.67 rdswmin=0.0 rdw=0.0 rdwmin=0.0 rsw=0.0 rswmin=0.0 voff={-1.329546542e-01+mc_mm_switch*agauss(0,1.0,1)*(sky130_fd_pr__nfet_01v8_lvt__voff_slope/sqrt(l*w*mult))} lvoff=4.819557388e-9 nfactor={2.088047121e+00+mc_mm_switch*agauss(0,1.0,1)*(sky130_fd_pr__nfet_01v8_lvt__nfactor_slope/sqrt(l*w*mult))} lnfactor=1.109129981e-7 up=0.0 ud=0.0 lp=1.0 tvfbsdoff=0.0 tvoff=0.0 cit=4.810000000e-07 lcit=2.150818050e-12 cdsc=3.8556e-37 cdscb=-0.00011484 cdscd=4.7984e-6 eta0=2.566597539e-03 leta0=6.832822021e-11 etab=7.541036029e-03 letab=-3.648649848e-09 wetab=3.101927297e-25 petab=-2.465190329e-31 dsub=1.588048920e+00 ldsub=-2.798818835e-7 voffl=0.0 minv=0.0 pclm=1.134240660e-01 lpclm=1.006281733e-7 pdiblc1=0.39 pdiblc2=2.854256280e-03 lpdiblc2=2.137655044e-9 pdiblcb=0.0 drout=3.4946 pscbe1=450000000.0 pscbe2=1.0e-8 pvag=0.0 delta=0.01 alpha0=-1.011350105e-03 lalpha0=5.483839952e-10 walpha0=-5.169878828e-26 palpha0=1.232595164e-32 alpha1=0.0 beta0=1.918019144e+01 lbeta0=2.429366624e-6 fprout=0.0 pdits=1.4427e-15 pditsl=0.0 pditsd=0.0 agidl=0.0 bgidl=2300000000.0 cgidl=0.5 egidl=0.8 aigbacc=1.0 bigbacc=0.0 cigbacc=0.0 nigbacc=1.0 aigbinv=0.35 bigbinv=0.03 cigbinv=0.006 eigbinv=1.1 nigbinv=3.0 aigc=0.43 bigc=0.054 cigc=0.075 nigc=1.0 aigsd=0.43 bigsd=0.054 cigsd=0.075 dlcig=0.0 poxedge=1.0 pigcd=1.0 ntox=1.0 toxref=4.148e-9 kt1=-2.701829100e-01 lkt1=-2.365899855e-10 kt2=-4.601988180e-02 lkt2=4.865580593e-9 at=1.069337728e+05 lat=-1.215470296e-2 ute=-1.227804580e+00 lute=4.693084985e-8 ua1=1.752556260e-09 lua1=-1.388137969e-16 ub1=-1.683418286e-18 lub1=1.862479382e-25 uc1=-2.881638008e-11 luc1=8.143685399e-18 wuc1=-6.162975822e-33 kt1l=0.0 prt=0.0 xrcrg1=12.0 xrcrg2=1.0 rbpb=50.0 rbpd=50.0 rbps=50.0 rbdb=50.0 rbsb=50.0 gbmin=1.0e-12 noia=9.0e+41 noib=1.0e+27 noic=800000000000.0 em=41000000.0 af=1.0 ef=1.2 kf=0.0 ntnoi=1.0 dmcg=0.0 dmcgt=0.0 dmdg=0.0 xgw=0.0 xgl=0.0 ngcon=1.0 diomod=1.0 njs=1.2928 jss=0.00275 jsws=6.0e-10 xtis=2.0 bvs=11.9 xjbvs=1.0 ijthsrev=0.1 ijthsfwd=0.1 tpb=0.0012287 tpbsw=0.0 tpbswg=0.0 tcj=0.000792 tcjsw=1.0e-5 tcjswg=0.0 cgdo=2.392894381e-10 cgso=2.392894381e-10 cgbo=1.0e-14 capmod=2.0 xpart=0.0 cgsl=2.310725e-11 cgdl=2.310725e-11 cf=1.0e-14 clc=1.0e-7 cle=0.6 dlc=1.21071e-8 dwc=2.6e-8 vfbcv=-1.0 acde=0.38008 moin=23.81 noff=3.8661 voffcv=-0.16994 ngate=1.0e+23 lwc=0.0 llc=0.0 lwlc=0.0 wlc=0.0 wwc=0.0 wwlc=0.0 ckappas=0.6 cjs=0.0012094836 mjs=0.42197 pbs=0.7477 cjsws=3.230311424e-11 mjsws=0.001 pbsws=0.1 cjswgs=1.795291232e-10 mjswgs=0.8 pbswgs=0.79644 saref=1.25e-6 sbref=1.24e-6 wlod={0+sky130_fd_pr__nfet_01v8_lvt__wlod_diff} kvth0={0+sky130_fd_pr__nfet_01v8_lvt__kvth0_diff} lkvth0={0+sky130_fd_pr__nfet_01v8_lvt__lkvth0_diff} wkvth0={0+sky130_fd_pr__nfet_01v8_lvt__wkvth0_diff} pkvth0=0.0 llodvth=0.0 wlodvth=1.0 stk2=0.0 lodk2=1.0 lodeta0=1.0 ku0={0+sky130_fd_pr__nfet_01v8_lvt__ku0_diff} lku0={0+sky130_fd_pr__nfet_01v8_lvt__lku0_diff} wku0={0+sky130_fd_pr__nfet_01v8_lvt__wku0_diff} pku0=0.0 llodku0=0.0 wlodku0=1.0 kvsat={0+sky130_fd_pr__nfet_01v8_lvt__kvsat_diff} steta0=0.0 tku0=0.0
Original line no.: 0, new internal line no.: 12433:
Cannot compute substitute
Original line no.: 0, new internal line no.: 12434:
Undefined number [l]
Original line no.: 0, new internal line no.: 12434:
 Expression err: l*w*mult)))} dtox=0.0 ndep=1.7000000000000000e+17 nsd=1.0e+20 rshg=0.1 rsh=1.0 vth0={5.157318706e-01+mc_mm_switch*agauss(0,1.0,1)*(sky130_fd_pr__nfet_01v8_lvt__vth0_slope1/sqrt(l*w*mult))} lvth0=-3.578317517e-8 k1=3.983765214e-01 lk1=4.567205948e-8 k2=-2.483991370e-02 lk2=-1.164041308e-8 k3=1.65 dvt0=0.07665 dvt1=0.1252 dvt2=-0.05637 dvt0w=0.0 dvt1w=5300000.0 dvt2w=-0.032 w0=1.0e-7 k3b=1.6 vfb=0.0 phin=0.0 lpe0=2.3802e-7 lpeb=-4.9152e-8 vbm=-3.0 dvtp0=0.0 dvtp1=0.0 vsat=1.222156647e+05 lvsat=6.051988343e-3 ua=-3.060500776e-09 lua=1.976738885e-16 ub=2.875139100e-18 lub=-4.150907114e-26 uc=1.203806285e-10 luc=-1.774898585e-17 rdsw=103.65 prwb=0.0 prwg=0.0 wr=1.0 u0=8.471584807e-03 lu0=2.128475028e-9 a0=4.889235214e+00 la0=-7.624762317e-7 keta=-8.749560622e-02 lketa=1.364493979e-8 a1=0.0 a2=0.38689047 ags=-2.449306143e+00 lags=5.534207230e-7 b0=0.0 b1=0.0 eu=1.67 rdswmin=0.0 rdw=0.0 rdwmin=0.0 rsw=0.0 rswmin=0.0 voff={-8.788891456e-02+mc_mm_switch*agauss(0,1.0,1)*(sky130_fd_pr__nfet_01v8_lvt__voff_slope/sqrt(l*w*mult))} lvoff=-5.363046493e-9 nfactor={2.135573841e+00+mc_mm_switch*agauss(0,1.0,1)*(sky130_fd_pr__nfet_01v8_lvt__nfactor_slope/sqrt(l*w*mult))} lnfactor=1.001743357e-7 up=0.0 ud=0.0 lp=1.0 tvfbsdoff=0.0 tvoff=0.0 cit=1.0e-5 cdsc=3.8556e-37 cdscb=-0.00011484 cdscd=4.7984e-6 eta0=-1.526614445e-01 leta0=3.514210431e-08 weta0=-9.926167351e-24 etab=4.217671818e-02 letab=-1.147458223e-08 petab=7.888609052e-31 dsub=4.190122551e-01 ldsub=-1.573804905e-8 voffl=0.0 minv=0.0 pclm=1.110375150e+00 lpclm=-1.246329241e-7 pdiblc1=1.171977857e+00 lpdiblc1=-1.766878968e-7 pdiblc2=1.225262000e-02 lpdiblc2=1.409476100e-11 pdiblcb=0.0 drout=3.4946 pscbe1=450000000.0 pscbe2=1.0e-8 pvag=0.0 delta=0.01 alpha0=3.445642658e-03 lalpha0=-4.586735196e-10 alpha1=0.0 beta0=3.290745030e+01 lbeta0=-6.723075151e-7 fprout=0.0 pdits=1.4427e-15 pditsl=0.0 pditsd=0.0 agidl=0.0 bgidl=2300000000.0 cgidl=0.5 egidl=0.8 aigbacc=1.0 bigbacc=0.0 cigbacc=0.0 nigbacc=1.0 aigbinv=0.35 bigbinv=0.03 cigbinv=0.006 eigbinv=1.1 nigbinv=3.0 aigc=0.43 bigc=0.054 cigc=0.075 nigc=1.0 aigsd=0.43 bigsd=0.054 cigsd=0.075 dlcig=0.0 poxedge=1.0 pigcd=1.0 ntox=1.0 toxref=4.148e-9 kt1=-2.760644500e-01 lkt1=1.092343977e-9 kt2=-1.230184929e-02 lkt2=-2.753008854e-9 at=1.617985000e+04 lat=8.351145893e-3 ute=5.875217143e-01 lute=-3.632421263e-7 ua1=3.857210529e-09 lua1=-6.143604289e-16 ub1=-3.191651871e-18 lub1=5.270333168e-25 uc1=3.615477057e-11 luc1=-6.536546091e-18 puc1=-7.346839693e-40 kt1l=0.0 prt=0.0 xrcrg1=12.0 xrcrg2=1.0 rbpb=50.0 rbpd=50.0 rbps=50.0 rbdb=50.0 rbsb=50.0 gbmin=1.0e-12 noia=9.0e+41 noib=1.0e+27 noic=800000000000.0 em=41000000.0 af=1.0 ef=1.2 kf=0.0 ntnoi=1.0 dmcg=0.0 dmcgt=0.0 dmdg=0.0 xgw=0.0 xgl=0.0 ngcon=1.0 diomod=1.0 njs=1.2928 jss=0.00275 jsws=6.0e-10 xtis=2.0 bvs=11.9 xjbvs=1.0 ijthsrev=0.1 ijthsfwd=0.1 tpb=0.0012287 tpbsw=0.0 tpbswg=0.0 tcj=0.000792 tcjsw=1.0e-5 tcjswg=0.0 cgdo=2.392894381e-10 cgso=2.392894381e-10 cgbo=1.0e-14 capmod=2.0 xpart=0.0 cgsl=2.310725e-11 cgdl=2.310725e-11 cf=1.0e-14 clc=1.0e-7 cle=0.6 dlc=1.21071e-8 dwc=2.6e-8 vfbcv=-1.0 acde=0.38008 moin=23.81 noff=3.8661 voffcv=-0.16994 ngate=1.0e+23 lwc=0.0 llc=0.0 lwlc=0.0 wlc=0.0 wwc=0.0 wwlc=0.0 ckappas=0.6 cjs=0.0012094836 mjs=0.42197 pbs=0.7477 cjsws=3.230311424e-11 mjsws=0.001 pbsws=0.1 cjswgs=1.795291232e-10 mjswgs=0.8 pbswgs=0.79644 saref=1.1e-6 sbref=1.1e-6 wlod={0+sky130_fd_pr__nfet_01v8_lvt__wlod_diff} kvth0={0+sky130_fd_pr__nfet_01v8_lvt__kvth0_diff} lkvth0={0+sky130_fd_pr__nfet_01v8_lvt__lkvth0_diff} wkvth0={0+sky130_fd_pr__nfet_01v8_lvt__wkvth0_diff} pkvth0=0.0 llodvth=0.0 wlodvth=1.0 stk2=0.0 lodk2=1.0 lodeta0=1.0 ku0={0+sky130_fd_pr__nfet_01v8_lvt__ku0_diff} lku0={0+sky130_fd_pr__nfet_01v8_lvt__lku0_diff} wku0={0+sky130_fd_pr__nfet_01v8_lvt__wku0_diff} pku0=0.0 llodku0=0.0 wlodku0=1.0 kvsat={0+sky130_fd_pr__nfet_01v8_lvt__kvsat_diff} steta0=0.0 tku0=0.0
Original line no.: 0, new internal line no.: 12434:
Cannot compute substitute
Original line no.: 0, new internal line no.: 12435:
Undefined number [l]
Original line no.: 0, new internal line no.: 12435:
 Expression err: l*w*mult)))} dtox=0.0 ndep=1.7000000000000000e+17 nsd=1.0e+20 rshg=0.1 rsh=1.0 vth0={7.061484390e-01+mc_mm_switch*agauss(0,1.0,1)*(sky130_fd_pr__nfet_01v8_lvt__vth0_slope1/sqrt(l*w*mult))} lvth0=-6.547863901e-08 wvth0=-7.463212592e-09 pvth0=1.163888004e-15 k1=5.784727667e-01 lk1=1.758605004e-8 k2=-6.613132729e-02 lk2=-5.201017136e-09 wk2=-2.444157735e-08 pk2=3.811663988e-15 k3=1.65 dvt0=0.07665 dvt1=0.1252 dvt2=-0.05637 dvt0w=0.0 dvt1w=5300000.0 dvt2w=-0.032 w0=1.0e-7 k3b=1.6 vfb=0.0 phin=0.0 lpe0=2.3802e-7 lpeb=-4.9152e-8 vbm=-3.0 dvtp0=0.0 dvtp1=0.0 vsat=1.851945716e+05 lvsat=-3.769572193e-03 wvsat=-1.512765376e-03 pvsat=2.359157603e-10 ua=3.111040417e-10 lua=-3.281278828e-16 wua=-5.426661083e-17 pua=8.462877959e-24 ub=2.545948883e-18 lub=9.828143208e-27 wub=1.331422922e-25 pub=-2.076354047e-32 uc=-3.661267122e-10 luc=5.812183393e-17 wuc=1.397863861e-16 puc=-2.179968692e-23 rdsw=103.65 prwb=0.0 prwg=0.0 wr=1.0 u0=6.517748496e-02 lu0=-6.714810100e-09 wu0=-2.708832491e-09 pu0=4.224424270e-16 a0=0.0 keta=-5.478114513e-01 lketa=8.543119583e-08 wketa=4.045286127e-07 pketa=-6.308623716e-14 a1=0.0 a2=0.38689047 ags=4.960995000e-01 lags=9.408471298e-8 b0=0.0 b1=0.0 eu=1.67 rdswmin=0.0 rdw=0.0 rdwmin=0.0 rsw=0.0 rswmin=0.0 voff={-2.888714313e-01+mc_mm_switch*agauss(0,1.0,1)*(sky130_fd_pr__nfet_01v8_lvt__voff_slope/sqrt(l*w*mult))} lvoff=2.598017699e-08 wvoff=4.817648731e-12 pvoff=-7.513123196e-19 nfactor={-6.040426660e+00+mc_mm_switch*agauss(0,1.0,1)*(sky130_fd_pr__nfet_01v8_lvt__nfactor_slope/sqrt(l*w*mult))} lnfactor=1.375221614e-06 wnfactor=2.050968944e-06 pnfactor=-3.198486069e-13 up=0.0 ud=0.0 lp=1.0 tvfbsdoff=0.0 tvoff=0.0 cit=1.0e-5 cdsc=3.8556e-37 cdscb=-0.00011484 cdscd=4.7984e-6 eta0=2.553362249e-01 leta0=-2.848513222e-8 etab=-1.545296712e-01 letab=1.920177919e-8 dsub=5.618342597e-01 ldsub=-3.801114066e-8 voffl=0.0 minv=0.0 pclm=8.002976667e-02 lpclm=3.604943839e-8 pdiblc1=-3.995598333e+00 lpdiblc1=6.291956101e-07 wpdiblc1=4.235164736e-22 ppdiblc1=-1.893266173e-29 pdiblc2=1.495856167e-02 lpdiblc2=-4.078968419e-10 pdiblcb=0.0 drout=3.4946 pscbe1=450000000.0 pscbe2=1.0e-8 pvag=0.0 delta=0.01 alpha0=4.084666456e-03 lalpha0=-5.583292809e-10 walpha0=-7.342312099e-10 palpha0=1.145033572e-16 alpha1=0.0 beta0=1.566769616e+02 lbeta0=-1.997416280e-05 wbeta0=-4.364497377e-05 pbeta0=6.806433660e-12 fprout=0.0 pdits=1.4427e-15 pditsl=0.0 pditsd=0.0 agidl=0.0 bgidl=2300000000.0 cgidl=0.5 egidl=0.8 aigbacc=1.0 bigbacc=0.0 cigbacc=0.0 nigbacc=1.0 aigbinv=0.35 bigbinv=0.03 cigbinv=0.006 eigbinv=1.1 nigbinv=3.0 aigc=0.43 bigc=0.054 cigc=0.075 nigc=1.0 aigsd=0.43 bigsd=0.054 cigsd=0.075 dlcig=0.0 poxedge=1.0 pigcd=1.0 ntox=1.0 toxref=4.148e-9 kt1=-6.657438333e-02 lkt1=-3.157763192e-8 kt2=-7.388636000e-02 lkt2=6.851095592e-9 at=-1.179365980e+05 lat=2.926660596e-02 wat=6.171798645e-02 pat=-9.624919986e-9 ute=-1.816010500e+00 lute=1.158872247e-8 ua1=2.281018004e-09 lua1=-3.685532047e-16 wua1=-6.456477888e-16 pua1=1.006887727e-22 ub1=-4.854787000e-19 lub1=1.050056108e-25 uc1=-1.097716290e-10 luc1=1.622067592e-17 wuc1=-1.232595164e-32 puc1=-7.346839693e-40 kt1l=0.0 prt=0.0 xrcrg1=12.0 xrcrg2=1.0 rbpb=50.0 rbpd=50.0 rbps=50.0 rbdb=50.0 rbsb=50.0 gbmin=1.0e-12 noia=9.0e+41 noib=1.0e+27 noic=800000000000.0 em=41000000.0 af=1.0 ef=1.2 kf=0.0 ntnoi=1.0 dmcg=0.0 dmcgt=0.0 dmdg=0.0 xgw=0.0 xgl=0.0 ngcon=1.0 diomod=1.0 njs=1.2928 jss=0.00275 jsws=6.0e-10 xtis=2.0 bvs=11.9 xjbvs=1.0 ijthsrev=0.1 ijthsfwd=0.1 tpb=0.0012287 tpbsw=0.0 tpbswg=0.0 tcj=0.000792 tcjsw=1.0e-5 tcjswg=0.0 cgdo=2.392894381e-10 cgso=2.392894381e-10 cgbo=1.0e-14 capmod=2.0 xpart=0.0 cgsl=2.310725e-11 cgdl=2.310725e-11 cf=1.0e-14 clc=1.0e-7 cle=0.6 dlc=1.21071e-8 dwc=2.6e-8 vfbcv=-1.0 acde=0.38008 moin=23.81 noff=3.8661 voffcv=-0.16994 ngate=1.0e+23 lwc=0.0 llc=0.0 lwlc=0.0 wlc=0.0 wwc=0.0 wwlc=0.0 ckappas=0.6 cjs=0.0012094836 mjs=0.42197 pbs=0.7477 cjsws=3.230311424e-11 mjsws=0.001 pbsws=0.1 cjswgs=1.795291232e-10 mjswgs=0.8 pbswgs=0.79644 saref=1.04e-6 sbref=1.04e-6 wlod={0+sky130_fd_pr__nfet_01v8_lvt__wlod_diff} kvth0={0+sky130_fd_pr__nfet_01v8_lvt__kvth0_diff} lkvth0={0+sky130_fd_pr__nfet_01v8_lvt__lkvth0_diff} wkvth0={0+sky130_fd_pr__nfet_01v8_lvt__wkvth0_diff} pkvth0=0.0 llodvth=0.0 wlodvth=1.0 stk2=0.0 lodk2=1.0 lodeta0=1.0 ku0={0+sky130_fd_pr__nfet_01v8_lvt__ku0_diff} lku0={0+sky130_fd_pr__nfet_01v8_lvt__lku0_diff} wku0={0+sky130_fd_pr__nfet_01v8_lvt__wku0_diff} pku0=0.0 llodku0=0.0 wlodku0=1.0 kvsat={0+sky130_fd_pr__nfet_01v8_lvt__kvsat_diff} steta0=0.0 tku0=0.0
Original line no.: 0, new internal line no.: 12435:
Cannot compute substitute
 Copies=12036 Evals=18941 Placeholders=1681 Symbols=11975 Errors=2288

ERROR: fatal error in ngspice, exit(1)
